<?xml version="1.0" encoding="UTF-8"?>

<!-- generated on 2025-10-10 16:44:18 by Eclipse SUMO netedit Version 1.23.1
<neteditConfiguration xmlns:xsi="http://www.w3.org/2001/XMLSchema-instance" xsi:noNamespaceSchemaLocation="http://sumo.dlr.de/xsd/neteditConfiguration.xsd">

    <input>
        <sumo-net-file value="D:\fnetdisk\Projects\v2sim\cases\ux_12nodes\12nodes.net.xml"/>
    </input>

    <output>
        <output-file value="D:\fnetdisk\Projects\v2sim\cases\ux_12nodes\12nodes.net.xml"/>
    </output>

    <processing>
        <geometry.min-radius.fix.railways value="false"/>
        <geometry.avoid-overlap value="false"/>
        <geometry.max-grade.fix value="false"/>
        <offset.disable-normalization value="true"/>
        <lefthand value="0"/>
    </processing>

    <junctions>
        <no-turnarounds value="true"/>
        <junctions.corner-detail value="5"/>
        <junctions.limit-turn-speed value="5.50"/>
        <rectangular-lane-cut value="0"/>
    </junctions>

    <pedestrian>
        <walkingareas value="0"/>
    </pedestrian>

</neteditConfiguration>
-->

<net version="1.20" junctionCornerDetail="5" limitTurnSpeed="5.50" avoidOverlap="0" xmlns:xsi="http://www.w3.org/2001/XMLSchema-instance" xsi:noNamespaceSchemaLocation="http://sumo.dlr.de/xsd/net_file.xsd">

    <location netOffset="0.00,0.00" convBoundary="-70.00,-130.00,230.00,150.00" origBoundary="-10000000000.00,-10000000000.00,10000000000.00,10000000000.00" projParameter="!"/>

    <edge id=":T1_0" function="internal">
        <lane id=":T1_0_0" index="0" speed="13.89" length="32.17" shape="40.40,154.80 34.03,153.85 27.32,151.01 20.26,146.27 12.85,139.64"/>
        <lane id=":T1_0_1" index="1" speed="13.89" length="29.67" shape="40.40,151.60 34.67,150.71 28.55,148.04 22.03,143.60 15.11,137.38"/>
    </edge>
    <edge id=":T1_2" function="internal">
        <lane id=":T1_2_0" index="0" speed="10.87" length="5.53" shape="40.40,151.60 35.15,150.28 35.07,150.20"/>
    </edge>
    <edge id=":T1_3" function="internal">
        <lane id=":T1_3_0" index="0" speed="3.65" length="1.44" shape="40.40,151.60 39.20,150.80"/>
    </edge>
    <edge id=":T1_12" function="internal">
        <lane id=":T1_12_0" index="0" speed="10.87" length="21.52" shape="35.07,150.20 31.40,146.34 29.15,139.76 28.40,130.55"/>
    </edge>
    <edge id=":T1_13" function="internal">
        <lane id=":T1_13_0" index="0" speed="3.65" length="3.23" shape="39.20,150.80 38.80,150.00 39.20,149.20 40.40,148.40"/>
    </edge>
    <edge id=":T1_4" function="internal">
        <lane id=":T1_4_0" index="0" speed="8.71" length="16.99" shape="34.80,130.55 35.15,136.96 36.20,141.54 37.95,144.28 40.40,145.20"/>
        <lane id=":T1_4_1" index="1" speed="9.84" length="21.99" shape="31.60,130.55 32.15,138.36 33.80,143.94 36.55,147.28 40.40,148.40"/>
    </edge>
    <edge id=":T1_6" function="internal">
        <lane id=":T1_6_0" index="0" speed="8.14" length="23.57" shape="31.60,130.55 30.01,136.78 25.99,140.31 20.65,140.66 15.11,137.38"/>
    </edge>
    <edge id=":T1_7" function="internal">
        <lane id=":T1_7_0" index="0" speed="3.65" length="2.34" shape="31.60,130.55 30.80,131.75 30.00,132.15"/>
    </edge>
    <edge id=":T1_14" function="internal">
        <lane id=":T1_14_0" index="0" speed="3.65" length="2.34" shape="30.00,132.15 29.20,131.75 28.40,130.55"/>
    </edge>
    <edge id=":T1_8" function="internal">
        <lane id=":T1_8_0" index="0" speed="5.47" length="9.74" shape="19.64,132.85 22.07,134.79 23.81,135.06 24.85,133.64 25.20,130.55"/>
    </edge>
    <edge id=":T1_9" function="internal">
        <lane id=":T1_9_0" index="0" speed="13.89" length="24.66" shape="19.64,132.85 25.57,138.25 31.00,142.11 35.95,144.43 40.40,145.20"/>
        <lane id=":T1_9_1" index="1" speed="13.89" length="27.16" shape="17.38,135.11 23.80,140.93 29.78,145.08 35.31,147.57 40.40,148.40"/>
    </edge>
    <edge id=":T1_11" function="internal">
        <lane id=":T1_11_0" index="0" speed="3.65" length="1.44" shape="17.38,135.11 17.66,136.53"/>
    </edge>
    <edge id=":T1_15" function="internal">
        <lane id=":T1_15_0" index="0" speed="3.65" length="3.23" shape="17.66,136.53 17.38,137.38 16.53,137.66 15.11,137.38"/>
    </edge>
    <edge id=":T10_0" function="internal">
        <lane id=":T10_0_0" index="0" speed="8.71" length="16.99" shape="225.20,-19.60 224.28,-22.05 221.54,-23.80 216.96,-24.85 210.55,-25.20"/>
    </edge>
    <edge id=":T10_1" function="internal">
        <lane id=":T10_1_0" index="0" speed="13.89" length="24.66" shape="225.20,-19.60 224.43,-24.05 222.11,-29.00 218.25,-34.43 212.85,-40.36"/>
        <lane id=":T10_1_1" index="1" speed="13.89" length="27.16" shape="228.40,-19.60 227.57,-24.69 225.08,-30.22 220.93,-36.20 215.11,-42.62"/>
    </edge>
    <edge id=":T10_3" function="internal">
        <lane id=":T10_3_0" index="0" speed="3.65" length="1.29" shape="228.40,-19.60 229.12,-20.68"/>
    </edge>
    <edge id=":T10_11" function="internal">
        <lane id=":T10_11_0" index="0" speed="3.65" length="3.38" shape="229.12,-20.68 229.20,-20.80 230.00,-21.20 230.80,-20.80 231.60,-19.60"/>
    </edge>
    <edge id=":T10_4" function="internal">
        <lane id=":T10_4_0" index="0" speed="13.89" length="32.17" shape="219.64,-47.15 226.27,-39.74 231.01,-32.68 233.85,-25.97 234.80,-19.60"/>
        <lane id=":T10_4_1" index="1" speed="13.89" length="29.67" shape="217.38,-44.89 223.60,-37.97 228.04,-31.45 230.71,-25.33 231.60,-19.60"/>
    </edge>
    <edge id=":T10_6" function="internal">
        <lane id=":T10_6_0" index="0" speed="8.14" length="3.59" shape="217.38,-44.89 219.21,-41.79"/>
    </edge>
    <edge id=":T10_7" function="internal">
        <lane id=":T10_7_0" index="0" speed="3.65" length="1.44" shape="217.38,-44.89 217.66,-43.47"/>
    </edge>
    <edge id=":T10_12" function="internal">
        <lane id=":T10_12_0" index="0" speed="8.14" length="19.97" shape="219.21,-41.79 220.66,-39.35 220.31,-34.01 216.78,-29.99 210.55,-28.40"/>
    </edge>
    <edge id=":T10_13" function="internal">
        <lane id=":T10_13_0" index="0" speed="3.65" length="3.23" shape="217.66,-43.47 217.38,-42.62 216.53,-42.34 215.11,-42.62"/>
    </edge>
    <edge id=":T10_8" function="internal">
        <lane id=":T10_8_0" index="0" speed="5.47" length="9.74" shape="210.55,-34.80 213.64,-35.15 215.06,-36.19 214.79,-37.93 212.85,-40.36"/>
    </edge>
    <edge id=":T10_9" function="internal">
        <lane id=":T10_9_0" index="0" speed="10.87" length="27.05" shape="210.55,-31.60 219.76,-30.85 226.34,-28.60 230.28,-24.85 231.60,-19.60"/>
    </edge>
    <edge id=":T10_10" function="internal">
        <lane id=":T10_10_0" index="0" speed="3.65" length="2.34" shape="210.55,-31.60 211.75,-30.80 212.15,-30.00"/>
    </edge>
    <edge id=":T10_14" function="internal">
        <lane id=":T10_14_0" index="0" speed="3.65" length="2.34" shape="212.15,-30.00 211.75,-29.20 210.55,-28.40"/>
    </edge>
    <edge id=":T11_0" function="internal">
        <lane id=":T11_0_0" index="0" speed="5.47" length="9.74" shape="25.20,-110.55 24.85,-113.64 23.81,-115.06 22.07,-114.79 19.64,-112.85"/>
    </edge>
    <edge id=":T11_1" function="internal">
        <lane id=":T11_1_0" index="0" speed="10.87" length="27.05" shape="28.40,-110.55 29.15,-119.76 31.40,-126.34 35.15,-130.28 40.40,-131.60"/>
    </edge>
    <edge id=":T11_2" function="internal">
        <lane id=":T11_2_0" index="0" speed="3.65" length="2.34" shape="28.40,-110.55 29.20,-111.75 30.00,-112.15"/>
    </edge>
    <edge id=":T11_11" function="internal">
        <lane id=":T11_11_0" index="0" speed="3.65" length="2.34" shape="30.00,-112.15 30.80,-111.75 31.60,-110.55"/>
    </edge>
    <edge id=":T11_3" function="internal">
        <lane id=":T11_3_0" index="0" speed="8.71" length="16.99" shape="40.40,-125.20 37.95,-124.28 36.20,-121.54 35.15,-116.96 34.80,-110.55"/>
    </edge>
    <edge id=":T11_4" function="internal">
        <lane id=":T11_4_0" index="0" speed="13.89" length="24.66" shape="40.40,-125.20 35.95,-124.43 31.00,-122.11 25.57,-118.25 19.64,-112.85"/>
        <lane id=":T11_4_1" index="1" speed="13.89" length="27.16" shape="40.40,-128.40 35.31,-127.57 29.78,-125.08 23.80,-120.93 17.38,-115.11"/>
    </edge>
    <edge id=":T11_6" function="internal">
        <lane id=":T11_6_0" index="0" speed="3.65" length="1.29" shape="40.40,-128.40 39.32,-129.12"/>
    </edge>
    <edge id=":T11_12" function="internal">
        <lane id=":T11_12_0" index="0" speed="3.65" length="3.38" shape="39.32,-129.12 39.20,-129.20 38.80,-130.00 39.20,-130.80 40.40,-131.60"/>
    </edge>
    <edge id=":T11_7" function="internal">
        <lane id=":T11_7_0" index="0" speed="13.89" length="32.17" shape="12.85,-119.64 20.26,-126.27 27.32,-131.01 34.03,-133.85 40.40,-134.80"/>
        <lane id=":T11_7_1" index="1" speed="13.89" length="29.67" shape="15.11,-117.38 22.03,-123.60 28.55,-128.04 34.67,-130.71 40.40,-131.60"/>
    </edge>
    <edge id=":T11_9" function="internal">
        <lane id=":T11_9_0" index="0" speed="8.14" length="3.59" shape="15.11,-117.38 18.21,-119.21"/>
    </edge>
    <edge id=":T11_10" function="internal">
        <lane id=":T11_10_0" index="0" speed="3.65" length="1.44" shape="15.11,-117.38 16.53,-117.66"/>
    </edge>
    <edge id=":T11_13" function="internal">
        <lane id=":T11_13_0" index="0" speed="8.14" length="19.97" shape="18.21,-119.21 20.65,-120.66 25.99,-120.31 30.01,-116.78 31.60,-110.55"/>
    </edge>
    <edge id=":T11_14" function="internal">
        <lane id=":T11_14_0" index="0" speed="3.65" length="3.23" shape="16.53,-117.66 17.38,-117.38 17.66,-116.53 17.38,-115.11"/>
    </edge>
    <edge id=":T12_0" function="internal">
        <lane id=":T12_0_0" index="0" speed="8.71" length="16.99" shape="125.20,-110.55 124.85,-116.96 123.80,-121.54 122.05,-124.28 119.60,-125.20"/>
        <lane id=":T12_0_1" index="1" speed="9.84" length="21.99" shape="128.40,-110.55 127.85,-118.36 126.20,-123.94 123.45,-127.28 119.60,-128.40"/>
    </edge>
    <edge id=":T12_2" function="internal">
        <lane id=":T12_2_0" index="0" speed="8.14" length="23.57" shape="128.40,-110.55 129.99,-116.78 134.01,-120.31 139.35,-120.66 144.89,-117.38"/>
    </edge>
    <edge id=":T12_3" function="internal">
        <lane id=":T12_3_0" index="0" speed="3.65" length="2.34" shape="128.40,-110.55 129.20,-111.75 130.00,-112.15"/>
    </edge>
    <edge id=":T12_12" function="internal">
        <lane id=":T12_12_0" index="0" speed="3.65" length="2.34" shape="130.00,-112.15 130.80,-111.75 131.60,-110.55"/>
    </edge>
    <edge id=":T12_4" function="internal">
        <lane id=":T12_4_0" index="0" speed="5.47" length="9.74" shape="140.36,-112.85 137.93,-114.79 136.19,-115.06 135.15,-113.64 134.80,-110.55"/>
    </edge>
    <edge id=":T12_5" function="internal">
        <lane id=":T12_5_0" index="0" speed="13.89" length="24.66" shape="140.36,-112.85 134.43,-118.25 129.00,-122.11 124.05,-124.43 119.60,-125.20"/>
        <lane id=":T12_5_1" index="1" speed="13.89" length="27.16" shape="142.62,-115.11 136.20,-120.93 130.22,-125.08 124.69,-127.57 119.60,-128.40"/>
    </edge>
    <edge id=":T12_7" function="internal">
        <lane id=":T12_7_0" index="0" speed="3.65" length="1.44" shape="142.62,-115.11 142.34,-116.53"/>
    </edge>
    <edge id=":T12_13" function="internal">
        <lane id=":T12_13_0" index="0" speed="3.65" length="3.23" shape="142.34,-116.53 142.62,-117.38 143.47,-117.66 144.89,-117.38"/>
    </edge>
    <edge id=":T12_8" function="internal">
        <lane id=":T12_8_0" index="0" speed="13.89" length="32.17" shape="119.60,-134.80 125.97,-133.85 132.68,-131.01 139.74,-126.27 147.15,-119.64"/>
        <lane id=":T12_8_1" index="1" speed="13.89" length="29.67" shape="119.60,-131.60 125.33,-130.71 131.45,-128.04 137.97,-123.60 144.89,-117.38"/>
    </edge>
    <edge id=":T12_10" function="internal">
        <lane id=":T12_10_0" index="0" speed="10.87" length="5.53" shape="119.60,-131.60 124.85,-130.28 124.93,-130.20"/>
    </edge>
    <edge id=":T12_11" function="internal">
        <lane id=":T12_11_0" index="0" speed="3.65" length="1.44" shape="119.60,-131.60 120.80,-130.80"/>
    </edge>
    <edge id=":T12_14" function="internal">
        <lane id=":T12_14_0" index="0" speed="10.87" length="21.52" shape="124.93,-130.20 128.60,-126.34 130.85,-119.76 131.60,-110.55"/>
    </edge>
    <edge id=":T12_15" function="internal">
        <lane id=":T12_15_0" index="0" speed="3.65" length="3.23" shape="120.80,-130.80 121.20,-130.00 120.80,-129.20 119.60,-128.40"/>
    </edge>
    <edge id=":T2_0" function="internal">
        <lane id=":T2_0_0" index="0" speed="13.89" length="32.17" shape="147.15,139.64 139.74,146.27 132.68,151.01 125.97,153.85 119.60,154.80"/>
        <lane id=":T2_0_1" index="1" speed="13.89" length="29.67" shape="144.89,137.38 137.97,143.60 131.45,148.04 125.33,150.71 119.60,151.60"/>
    </edge>
    <edge id=":T2_2" function="internal">
        <lane id=":T2_2_0" index="0" speed="8.14" length="3.59" shape="144.89,137.38 141.79,139.21"/>
    </edge>
    <edge id=":T2_3" function="internal">
        <lane id=":T2_3_0" index="0" speed="3.65" length="1.44" shape="144.89,137.38 143.47,137.66"/>
    </edge>
    <edge id=":T2_11" function="internal">
        <lane id=":T2_11_0" index="0" speed="8.14" length="19.97" shape="141.79,139.21 139.35,140.66 134.01,140.31 129.99,136.78 128.40,130.55"/>
    </edge>
    <edge id=":T2_12" function="internal">
        <lane id=":T2_12_0" index="0" speed="3.65" length="3.23" shape="143.47,137.66 142.62,137.38 142.34,136.53 142.62,135.11"/>
    </edge>
    <edge id=":T2_4" function="internal">
        <lane id=":T2_4_0" index="0" speed="5.47" length="9.74" shape="134.80,130.55 135.15,133.64 136.19,135.06 137.93,134.79 140.36,132.85"/>
    </edge>
    <edge id=":T2_5" function="internal">
        <lane id=":T2_5_0" index="0" speed="10.87" length="27.05" shape="131.60,130.55 130.85,139.76 128.60,146.34 124.85,150.28 119.60,151.60"/>
    </edge>
    <edge id=":T2_6" function="internal">
        <lane id=":T2_6_0" index="0" speed="3.65" length="2.34" shape="131.60,130.55 130.80,131.75 130.00,132.15"/>
    </edge>
    <edge id=":T2_13" function="internal">
        <lane id=":T2_13_0" index="0" speed="3.65" length="2.34" shape="130.00,132.15 129.20,131.75 128.40,130.55"/>
    </edge>
    <edge id=":T2_7" function="internal">
        <lane id=":T2_7_0" index="0" speed="8.71" length="16.99" shape="119.60,145.20 122.05,144.28 123.80,141.54 124.85,136.96 125.20,130.55"/>
    </edge>
    <edge id=":T2_8" function="internal">
        <lane id=":T2_8_0" index="0" speed="13.89" length="24.66" shape="119.60,145.20 124.05,144.43 129.00,142.11 134.43,138.25 140.36,132.85"/>
        <lane id=":T2_8_1" index="1" speed="13.89" length="27.16" shape="119.60,148.40 124.69,147.57 130.22,145.08 136.20,140.93 142.62,135.11"/>
    </edge>
    <edge id=":T2_10" function="internal">
        <lane id=":T2_10_0" index="0" speed="3.65" length="1.29" shape="119.60,148.40 120.68,149.12"/>
    </edge>
    <edge id=":T2_14" function="internal">
        <lane id=":T2_14_0" index="0" speed="3.65" length="3.38" shape="120.68,149.12 120.80,149.20 121.20,150.00 120.80,150.80 119.60,151.60"/>
    </edge>
    <edge id=":T3_0" function="internal">
        <lane id=":T3_0_0" index="0" speed="13.89" length="32.17" shape="-59.64,67.15 -66.27,59.74 -71.01,52.68 -73.85,45.97 -74.80,39.60"/>
        <lane id=":T3_0_1" index="1" speed="13.89" length="29.67" shape="-57.38,64.89 -63.60,57.97 -68.04,51.45 -70.71,45.33 -71.60,39.60"/>
    </edge>
    <edge id=":T3_2" function="internal">
        <lane id=":T3_2_0" index="0" speed="8.14" length="3.59" shape="-57.38,64.89 -59.21,61.79"/>
    </edge>
    <edge id=":T3_3" function="internal">
        <lane id=":T3_3_0" index="0" speed="3.65" length="1.44" shape="-57.38,64.89 -57.66,63.47"/>
    </edge>
    <edge id=":T3_11" function="internal">
        <lane id=":T3_11_0" index="0" speed="8.14" length="19.97" shape="-59.21,61.79 -60.66,59.35 -60.31,54.01 -56.78,49.99 -50.55,48.40"/>
    </edge>
    <edge id=":T3_12" function="internal">
        <lane id=":T3_12_0" index="0" speed="3.65" length="3.23" shape="-57.66,63.47 -57.38,62.62 -56.53,62.34 -55.11,62.62"/>
    </edge>
    <edge id=":T3_4" function="internal">
        <lane id=":T3_4_0" index="0" speed="5.47" length="9.74" shape="-50.55,54.80 -53.64,55.15 -55.06,56.19 -54.79,57.93 -52.85,60.36"/>
    </edge>
    <edge id=":T3_5" function="internal">
        <lane id=":T3_5_0" index="0" speed="10.87" length="27.05" shape="-50.55,51.60 -59.76,50.85 -66.34,48.60 -70.28,44.85 -71.60,39.60"/>
    </edge>
    <edge id=":T3_6" function="internal">
        <lane id=":T3_6_0" index="0" speed="3.65" length="2.34" shape="-50.55,51.60 -51.75,50.80 -52.15,50.00"/>
    </edge>
    <edge id=":T3_13" function="internal">
        <lane id=":T3_13_0" index="0" speed="3.65" length="2.34" shape="-52.15,50.00 -51.75,49.20 -50.55,48.40"/>
    </edge>
    <edge id=":T3_7" function="internal">
        <lane id=":T3_7_0" index="0" speed="8.71" length="16.99" shape="-65.20,39.60 -64.28,42.05 -61.54,43.80 -56.96,44.85 -50.55,45.20"/>
    </edge>
    <edge id=":T3_8" function="internal">
        <lane id=":T3_8_0" index="0" speed="13.89" length="24.66" shape="-65.20,39.60 -64.43,44.05 -62.11,49.00 -58.25,54.43 -52.85,60.36"/>
        <lane id=":T3_8_1" index="1" speed="13.89" length="27.16" shape="-68.40,39.60 -67.57,44.69 -65.08,50.22 -60.93,56.20 -55.11,62.62"/>
    </edge>
    <edge id=":T3_10" function="internal">
        <lane id=":T3_10_0" index="0" speed="3.65" length="1.29" shape="-68.40,39.60 -69.12,40.68"/>
    </edge>
    <edge id=":T3_14" function="internal">
        <lane id=":T3_14_0" index="0" speed="3.65" length="3.38" shape="-69.12,40.68 -69.20,40.80 -70.00,41.20 -70.80,40.80 -71.60,39.60"/>
    </edge>
    <edge id=":T4_0" function="internal">
        <lane id=":T4_0_0" index="0" speed="6.51" length="9.03" shape="25.20,60.40 24.85,57.95 23.80,56.20 22.05,55.15 19.60,54.80"/>
    </edge>
    <edge id=":T4_1" function="internal">
        <lane id=":T4_1_0" index="0" speed="13.89" length="20.80" shape="25.20,60.40 25.20,39.60"/>
        <lane id=":T4_1_1" index="1" speed="13.89" length="20.80" shape="28.40,60.40 28.40,39.60"/>
    </edge>
    <edge id=":T4_3" function="internal">
        <lane id=":T4_3_0" index="0" speed="9.26" length="5.01" shape="28.40,60.40 29.11,55.44"/>
    </edge>
    <edge id=":T4_4" function="internal">
        <lane id=":T4_4_0" index="0" speed="3.65" length="1.44" shape="28.40,60.40 29.20,59.20"/>
    </edge>
    <edge id=":T4_20" function="internal">
        <lane id=":T4_20_0" index="0" speed="9.26" length="14.34" shape="29.11,55.44 29.15,55.15 31.40,51.40 35.15,49.15 40.40,48.40"/>
    </edge>
    <edge id=":T4_21" function="internal">
        <lane id=":T4_21_0" index="0" speed="3.65" length="3.23" shape="29.20,59.20 30.00,58.80 30.80,59.20 31.60,60.40"/>
    </edge>
    <edge id=":T4_5" function="internal">
        <lane id=":T4_5_0" index="0" speed="6.51" length="9.03" shape="40.40,54.80 37.95,55.15 36.20,56.20 35.15,57.95 34.80,60.40"/>
    </edge>
    <edge id=":T4_6" function="internal">
        <lane id=":T4_6_0" index="0" speed="13.89" length="20.80" shape="40.40,54.80 19.60,54.80"/>
        <lane id=":T4_6_1" index="1" speed="13.89" length="20.80" shape="40.40,51.60 19.60,51.60"/>
    </edge>
    <edge id=":T4_8" function="internal">
        <lane id=":T4_8_0" index="0" speed="9.26" length="5.01" shape="40.40,51.60 35.44,50.89"/>
    </edge>
    <edge id=":T4_9" function="internal">
        <lane id=":T4_9_0" index="0" speed="3.65" length="1.44" shape="40.40,51.60 39.20,50.80"/>
    </edge>
    <edge id=":T4_22" function="internal">
        <lane id=":T4_22_0" index="0" speed="9.26" length="14.34" shape="35.44,50.89 35.15,50.85 31.40,48.60 29.15,44.85 28.40,39.60"/>
    </edge>
    <edge id=":T4_23" function="internal">
        <lane id=":T4_23_0" index="0" speed="3.65" length="3.23" shape="39.20,50.80 38.80,50.00 39.20,49.20 40.40,48.40"/>
    </edge>
    <edge id=":T4_10" function="internal">
        <lane id=":T4_10_0" index="0" speed="6.51" length="9.03" shape="34.80,39.60 35.15,42.05 36.20,43.80 37.95,44.85 40.40,45.20"/>
    </edge>
    <edge id=":T4_11" function="internal">
        <lane id=":T4_11_0" index="0" speed="13.89" length="20.80" shape="34.80,39.60 34.80,60.40"/>
        <lane id=":T4_11_1" index="1" speed="13.89" length="20.80" shape="31.60,39.60 31.60,60.40"/>
    </edge>
    <edge id=":T4_13" function="internal">
        <lane id=":T4_13_0" index="0" speed="9.26" length="5.01" shape="31.60,39.60 30.89,44.56"/>
    </edge>
    <edge id=":T4_14" function="internal">
        <lane id=":T4_14_0" index="0" speed="3.65" length="1.44" shape="31.60,39.60 30.80,40.80"/>
    </edge>
    <edge id=":T4_24" function="internal">
        <lane id=":T4_24_0" index="0" speed="9.26" length="14.34" shape="30.89,44.56 30.85,44.85 28.60,48.60 24.85,50.85 19.60,51.60"/>
    </edge>
    <edge id=":T4_25" function="internal">
        <lane id=":T4_25_0" index="0" speed="3.65" length="3.23" shape="30.80,40.80 30.00,41.20 29.20,40.80 28.40,39.60"/>
    </edge>
    <edge id=":T4_15" function="internal">
        <lane id=":T4_15_0" index="0" speed="6.51" length="9.03" shape="19.60,45.20 22.05,44.85 23.80,43.80 24.85,42.05 25.20,39.60"/>
    </edge>
    <edge id=":T4_16" function="internal">
        <lane id=":T4_16_0" index="0" speed="13.89" length="20.80" shape="19.60,45.20 40.40,45.20"/>
        <lane id=":T4_16_1" index="1" speed="13.89" length="20.80" shape="19.60,48.40 40.40,48.40"/>
    </edge>
    <edge id=":T4_18" function="internal">
        <lane id=":T4_18_0" index="0" speed="9.26" length="5.01" shape="19.60,48.40 24.56,49.11"/>
    </edge>
    <edge id=":T4_19" function="internal">
        <lane id=":T4_19_0" index="0" speed="3.65" length="1.44" shape="19.60,48.40 20.80,49.20"/>
    </edge>
    <edge id=":T4_26" function="internal">
        <lane id=":T4_26_0" index="0" speed="9.26" length="14.34" shape="24.56,49.11 24.85,49.15 28.60,51.40 30.85,55.15 31.60,60.40"/>
    </edge>
    <edge id=":T4_27" function="internal">
        <lane id=":T4_27_0" index="0" speed="3.65" length="3.23" shape="20.80,49.20 21.20,50.00 20.80,50.80 19.60,51.60"/>
    </edge>
    <edge id=":T5_0" function="internal">
        <lane id=":T5_0_0" index="0" speed="6.51" length="9.03" shape="125.20,60.40 124.85,57.95 123.80,56.20 122.05,55.15 119.60,54.80"/>
    </edge>
    <edge id=":T5_1" function="internal">
        <lane id=":T5_1_0" index="0" speed="13.89" length="20.80" shape="125.20,60.40 125.20,39.60"/>
        <lane id=":T5_1_1" index="1" speed="13.89" length="20.80" shape="128.40,60.40 128.40,39.60"/>
    </edge>
    <edge id=":T5_3" function="internal">
        <lane id=":T5_3_0" index="0" speed="9.26" length="5.01" shape="128.40,60.40 129.11,55.44"/>
    </edge>
    <edge id=":T5_4" function="internal">
        <lane id=":T5_4_0" index="0" speed="3.65" length="1.44" shape="128.40,60.40 129.20,59.20"/>
    </edge>
    <edge id=":T5_20" function="internal">
        <lane id=":T5_20_0" index="0" speed="9.26" length="14.34" shape="129.11,55.44 129.15,55.15 131.40,51.40 135.15,49.15 140.40,48.40"/>
    </edge>
    <edge id=":T5_21" function="internal">
        <lane id=":T5_21_0" index="0" speed="3.65" length="3.23" shape="129.20,59.20 130.00,58.80 130.80,59.20 131.60,60.40"/>
    </edge>
    <edge id=":T5_5" function="internal">
        <lane id=":T5_5_0" index="0" speed="6.51" length="9.03" shape="140.40,54.80 137.95,55.15 136.20,56.20 135.15,57.95 134.80,60.40"/>
    </edge>
    <edge id=":T5_6" function="internal">
        <lane id=":T5_6_0" index="0" speed="13.89" length="20.80" shape="140.40,54.80 119.60,54.80"/>
        <lane id=":T5_6_1" index="1" speed="13.89" length="20.80" shape="140.40,51.60 119.60,51.60"/>
    </edge>
    <edge id=":T5_8" function="internal">
        <lane id=":T5_8_0" index="0" speed="9.26" length="5.01" shape="140.40,51.60 135.44,50.89"/>
    </edge>
    <edge id=":T5_9" function="internal">
        <lane id=":T5_9_0" index="0" speed="3.65" length="1.44" shape="140.40,51.60 139.20,50.80"/>
    </edge>
    <edge id=":T5_22" function="internal">
        <lane id=":T5_22_0" index="0" speed="9.26" length="14.34" shape="135.44,50.89 135.15,50.85 131.40,48.60 129.15,44.85 128.40,39.60"/>
    </edge>
    <edge id=":T5_23" function="internal">
        <lane id=":T5_23_0" index="0" speed="3.65" length="3.23" shape="139.20,50.80 138.80,50.00 139.20,49.20 140.40,48.40"/>
    </edge>
    <edge id=":T5_10" function="internal">
        <lane id=":T5_10_0" index="0" speed="6.51" length="9.03" shape="134.80,39.60 135.15,42.05 136.20,43.80 137.95,44.85 140.40,45.20"/>
    </edge>
    <edge id=":T5_11" function="internal">
        <lane id=":T5_11_0" index="0" speed="13.89" length="20.80" shape="134.80,39.60 134.80,60.40"/>
        <lane id=":T5_11_1" index="1" speed="13.89" length="20.80" shape="131.60,39.60 131.60,60.40"/>
    </edge>
    <edge id=":T5_13" function="internal">
        <lane id=":T5_13_0" index="0" speed="9.26" length="5.01" shape="131.60,39.60 130.89,44.56"/>
    </edge>
    <edge id=":T5_14" function="internal">
        <lane id=":T5_14_0" index="0" speed="3.65" length="1.44" shape="131.60,39.60 130.80,40.80"/>
    </edge>
    <edge id=":T5_24" function="internal">
        <lane id=":T5_24_0" index="0" speed="9.26" length="14.34" shape="130.89,44.56 130.85,44.85 128.60,48.60 124.85,50.85 119.60,51.60"/>
    </edge>
    <edge id=":T5_25" function="internal">
        <lane id=":T5_25_0" index="0" speed="3.65" length="3.23" shape="130.80,40.80 130.00,41.20 129.20,40.80 128.40,39.60"/>
    </edge>
    <edge id=":T5_15" function="internal">
        <lane id=":T5_15_0" index="0" speed="6.51" length="9.03" shape="119.60,45.20 122.05,44.85 123.80,43.80 124.85,42.05 125.20,39.60"/>
    </edge>
    <edge id=":T5_16" function="internal">
        <lane id=":T5_16_0" index="0" speed="13.89" length="20.80" shape="119.60,45.20 140.40,45.20"/>
        <lane id=":T5_16_1" index="1" speed="13.89" length="20.80" shape="119.60,48.40 140.40,48.40"/>
    </edge>
    <edge id=":T5_18" function="internal">
        <lane id=":T5_18_0" index="0" speed="9.26" length="5.01" shape="119.60,48.40 124.56,49.11"/>
    </edge>
    <edge id=":T5_19" function="internal">
        <lane id=":T5_19_0" index="0" speed="3.65" length="1.44" shape="119.60,48.40 120.80,49.20"/>
    </edge>
    <edge id=":T5_26" function="internal">
        <lane id=":T5_26_0" index="0" speed="9.26" length="14.34" shape="124.56,49.11 124.85,49.15 128.60,51.40 130.85,55.15 131.60,60.40"/>
    </edge>
    <edge id=":T5_27" function="internal">
        <lane id=":T5_27_0" index="0" speed="3.65" length="3.23" shape="120.80,49.20 121.20,50.00 120.80,50.80 119.60,51.60"/>
    </edge>
    <edge id=":T6_0" function="internal">
        <lane id=":T6_0_0" index="0" speed="13.89" length="32.17" shape="234.80,39.60 233.85,45.97 231.01,52.68 226.27,59.74 219.64,67.15"/>
        <lane id=":T6_0_1" index="1" speed="13.89" length="29.67" shape="231.60,39.60 230.71,45.33 228.04,51.45 223.60,57.97 217.38,64.89"/>
    </edge>
    <edge id=":T6_2" function="internal">
        <lane id=":T6_2_0" index="0" speed="10.87" length="5.53" shape="231.60,39.60 230.28,44.85 230.20,44.93"/>
    </edge>
    <edge id=":T6_3" function="internal">
        <lane id=":T6_3_0" index="0" speed="3.65" length="1.44" shape="231.60,39.60 230.80,40.80"/>
    </edge>
    <edge id=":T6_12" function="internal">
        <lane id=":T6_12_0" index="0" speed="10.87" length="21.52" shape="230.20,44.93 226.34,48.60 219.76,50.85 210.55,51.60"/>
    </edge>
    <edge id=":T6_13" function="internal">
        <lane id=":T6_13_0" index="0" speed="3.65" length="3.23" shape="230.80,40.80 230.00,41.20 229.20,40.80 228.40,39.60"/>
    </edge>
    <edge id=":T6_4" function="internal">
        <lane id=":T6_4_0" index="0" speed="8.71" length="16.99" shape="210.55,45.20 216.96,44.85 221.54,43.80 224.28,42.05 225.20,39.60"/>
        <lane id=":T6_4_1" index="1" speed="9.84" length="21.99" shape="210.55,48.40 218.36,47.85 223.94,46.20 227.28,43.45 228.40,39.60"/>
    </edge>
    <edge id=":T6_6" function="internal">
        <lane id=":T6_6_0" index="0" speed="8.14" length="23.57" shape="210.55,48.40 216.78,49.99 220.31,54.01 220.66,59.35 217.38,64.89"/>
    </edge>
    <edge id=":T6_7" function="internal">
        <lane id=":T6_7_0" index="0" speed="3.65" length="2.34" shape="210.55,48.40 211.75,49.20 212.15,50.00"/>
    </edge>
    <edge id=":T6_14" function="internal">
        <lane id=":T6_14_0" index="0" speed="3.65" length="2.34" shape="212.15,50.00 211.75,50.80 210.55,51.60"/>
    </edge>
    <edge id=":T6_8" function="internal">
        <lane id=":T6_8_0" index="0" speed="5.47" length="9.74" shape="212.85,60.36 214.79,57.93 215.06,56.19 213.64,55.15 210.55,54.80"/>
    </edge>
    <edge id=":T6_9" function="internal">
        <lane id=":T6_9_0" index="0" speed="13.89" length="24.66" shape="212.85,60.36 218.25,54.43 222.11,49.00 224.43,44.05 225.20,39.60"/>
        <lane id=":T6_9_1" index="1" speed="13.89" length="27.16" shape="215.11,62.62 220.93,56.20 225.08,50.22 227.57,44.69 228.40,39.60"/>
    </edge>
    <edge id=":T6_11" function="internal">
        <lane id=":T6_11_0" index="0" speed="3.65" length="1.44" shape="215.11,62.62 216.53,62.34"/>
    </edge>
    <edge id=":T6_15" function="internal">
        <lane id=":T6_15_0" index="0" speed="3.65" length="3.23" shape="216.53,62.34 217.38,62.62 217.66,63.47 217.38,64.89"/>
    </edge>
    <edge id=":T7_0" function="internal">
        <lane id=":T7_0_0" index="0" speed="13.89" length="32.13" shape="-74.80,-19.60 -73.43,-27.13 -69.87,-34.47 -64.99,-41.27 -59.64,-47.15"/>