<roadnet v2simfmtver="1.0">
  <node id="T1" x="30" y="150"/>
  <node id="T2" x="130" y="150"/>
  <node id="T3" x="-70" y="50"/>
  <node id="T11" x="30" y="-130"/>
  <node id="T12" x="130" y="-130"/>
  <node id="T10" x="230" y="-30"/>
  <node id="T7" x="-70" y="-30"/>
  <node id="T8" x="30" y="-30"/>
  <node id="T4" x="30" y="50"/>
  <node id="T5" x="130" y="50"/>
  <node id="T9" x="130" y="-30"/>
  <node id="T6" x="230" y="50"/>
  <edge id="T1_T2" from="T1" to="T2" length="6000.0" lanes="2" speed="13.89" world_id="0"/>
  <edge id="T3_T1" from="T3" to="T1" length="3000.0" lanes="2" speed="13.89" world_id="0"/>
  <edge id="T11_T12" from="T11" to="T12" length="5000.0" lanes="2" speed="13.89" world_id="1"/>
  <edge id="T12_T10" from="T12" to="T10" length="3000.0" lanes="2" speed="13.89" world_id="1"/>
  <edge id="T3_T7" from="T3" to="T7" length="6000.0" lanes="2" speed="13.89" world_id="0"/>
  <edge id="T8_T4" from="T8" to="T4" length="7000.0" lanes="2" speed="13.89" world_id="0"/>
  <edge id="T5_T9" from="T5" to="T9" length="8000.0" lanes="2" speed="13.89" world_id="1"/>
  <edge id="T2_T6" from="T2" to="T6" length="4000.0" lanes="2" speed="13.89" world_id="1"/>
  <edge id="T2_T5" from="T2" to="T5" length="3000.0" lanes="2" speed="13.89" world_id="1"/>
  <edge id="T1_T4" from="T1" to="T4" length="2000.0" lanes="2" speed="13.89" world_id="0"/>
  <edge id="T8_T11" from="T8" to="T11" length="2000.0" lanes="2" speed="13.89" world_id="0"/>
  <edge id="T3_T4" from="T3" to="T4" length="3000.0" lanes="2" speed="13.89" world_id="0"/>
  <edge id="T9_T12" from="T9" to="T12" length="2000.0" lanes="2" speed="13.89" world_id="1"/>
  <edge id="T1_T3" from="T1" to="T3" length="3000.0" lanes="2" speed="13.89" world_id="0"/>
  <edge id="T4_T1" from="T4" to="T1" length="2000.0" lanes="2" speed="13.89" world_id="0"/>
  <edge id="T7_T3" from="T7" to="T3" length="6000.0" lanes="2" speed="13.89" world_id="0"/>
  <edge id="T2_T1" from="T2" to="T1" length="6000.0" lanes="2" speed="13.89" world_id="0"/>
  <edge id="T5_T4" from="T5" to="T4" length="8000.0" lanes="2" speed="13.89" world_id="0"/>
  <edge id="T9_T5" from="T9" to="T5" length="8000.0" lanes="2" speed="13.89" world_id="1"/>
  <edge id="T8_T9" from="T8" to="T9" length="7000.0" lanes="2" speed="13.89" world_id="1"/>
  <edge id="T11_T7" from="T11" to="T7" length="3000.0" lanes="2" speed="13.89" world_id="0"/>
  <edge id="T11_T8" from="T11" to="T8" length="2000.0" lanes="2" speed="13.89" world_id="0"/>
  <edge id="T4_T5" from="T4" to="T5" length="8000.0" lanes="2" speed="13.89" world_id="0"/>
  <edge id="T12_T9" from="T12" to="T9" length="2000.0" lanes="2" speed="13.89" world_id="1"/>
  <edge id="T10_T12" from="T10" to="T12" length="3000.0" lanes="2" speed="13.89" world_id="1"/>
  <edge id="T6_T2" from="T6" to="T2" length="4000.0" lanes="2" speed="13.89" world_id="1"/>
  <edge id="T6_T5" from="T6" to="T5" length="4000.0" lanes="2" speed="13.89" world_id="1"/>
  <edge id="T12_T11" from="T12" to="T11" length="5000.0" lanes="2" speed="13.89" world_id="1"/>
  <edge id="T9_T10" from="T9" to="T10" length="3000.0" lanes="2" speed="13.89" world_id="1"/>
  <edge id="T10_T6" from="T10" to="T6" length="6000.0" lanes="2" speed="13.89" world_id="1"/>
  <edge id="T5_T2" from="T5" to="T2" length="3000.0" lanes="2" speed="13.89" world_id="1"/>
  <edge id="T4_T8" from="T4" to="T8" length="7000.0" lanes="2" speed="13.89" world_id="0"/>
  <edge id="T5_T6" from="T5" to="T6" length="4000.0" lanes="2" speed="13.89" world_id="1"/>
  <edge id="T4_T3" from="T4" to="T3" length="3000.0" lanes="2" speed="13.89" world_id="0"/>
  <edge id="T7_T8" from="T7" to="T8" length="3000.0" lanes="2" speed="13.89" world_id="0"/>
  <edge id="T6_T10" from="T6" to="T10" length="6000.0" lanes="2" speed="13.89" world_id="1"/>
  <edge id="T10_T9" from="T10" to="T9" length="3000.0" lanes="2" speed="13.89" world_id="1"/>
  <edge id="T9_T8" from="T9" to="T8" length="7000.0" lanes="2" speed="13.89" world_id="1"/>
  <edge id="T8_T7" from="T8" to="T7" length="3000.0" lanes="2" speed="13.89" world_id="0"/>
  <edge id="T7_T11" from="T7" to="T11" length="3000.0" lanes="2" speed="13.89" world_id="0"/>
</roadnet>
