<?xml version="1.0" encoding="UTF-8"?>

<!-- generated on 2024-02-18 21:20:05 by Eclipse SUMO sumo Version 1.18.0
-->

<configuration xmlns:xsi="http://www.w3.org/2001/XMLSchema-instance" xsi:noNamespaceSchemaLocation="http://sumo.dlr.de/xsd/sumoConfiguration.xsd">

    <input>
        <net-file value="37nodes.net.xml"/>
        <additional-files value="37nodes.taz.xml"/>
    </input>

    <time>
        <begin value="0"/>
        <end value="172800"/>
    </time>

</configuration>
