<?xml version="1.0" encoding="UTF-8"?>

<!-- generated on 2024-02-18 21:20:05 by Eclipse SUMO netedit Version 1.18.0
<configuration xmlns:xsi="http://www.w3.org/2001/XMLSchema-instance" xsi:noNamespaceSchemaLocation="http://sumo.dlr.de/xsd/neteditConfiguration.xsd">

    <input>
        <sumocfg-file value="D:\Projects\ev-load-pred\37nodes\37nodes.sumocfg"/>
        <additional-files value="D:\Projects\ev-load-pred\37nodes\37nodes.taz.xml"/>
        <route-files value=""/>
        <sumo-net-file value="D:\Projects\ev-load-pred\37nodes\37nodes.net.xml"/>
    </input>

    <output>
        <output-file value="D:\Projects\ev-load-pred\37nodes\37nodes.net.xml"/>
    </output>

    <processing>
        <geometry.min-radius.fix.railways value="false"/>
        <geometry.max-grade.fix value="false"/>
        <offset.disable-normalization value="true"/>
        <lefthand value="0"/>
    </processing>

    <junctions>
        <no-turnarounds value="true"/>
        <junctions.corner-detail value="5"/>
        <junctions.limit-turn-speed value="5.50"/>
        <rectangular-lane-cut value="0"/>
    </junctions>

    <pedestrian>
        <walkingareas value="0"/>
    </pedestrian>

</configuration>
-->

<net version="1.16" junctionCornerDetail="5" limitTurnSpeed="5.50" xmlns:xsi="http://www.w3.org/2001/XMLSchema-instance" xsi:noNamespaceSchemaLocation="http://sumo.dlr.de/xsd/net_file.xsd">

    <location netOffset="-648678.39,-3534503.27" convBoundary="0.00,0.00,36142.74,29171.70" origBoundary="118.576140,31.933700,118.959540,32.196500" projParameter="+proj=utm +zone=50 +ellps=WGS84 +datum=WGS84 +units=m +no_defs"/>

    <edge id=":gneJ0_0" function="internal">
        <lane id=":gneJ0_0_0" index="0" speed="8.18" length="18.69" shape="10177.42,19440.05 10168.44,19435.43 10165.03,19430.18 10167.18,19424.30 10174.90,19417.79"/>
        <lane id=":gneJ0_0_1" index="1" speed="7.00" length="18.69" shape="10177.06,19436.87 10170.65,19433.57 10168.21,19429.82 10169.75,19425.62 10175.26,19420.97"/>
        <lane id=":gneJ0_0_2" index="2" speed="5.58" length="18.69" shape="10176.70,19433.69 10172.85,19431.71 10171.39,19429.46 10172.31,19426.94 10175.62,19424.15"/>
        <lane id=":gneJ0_0_3" index="3" speed="3.65" length="18.69" shape="10176.34,19430.51 10175.06,19429.85 10174.57,19429.10 10174.88,19428.26 10175.98,19427.33"/>
    </edge>
    <edge id=":gneJ1_0" function="internal">
        <lane id=":gneJ1_0_0" index="0" speed="8.18" length="18.69" shape="3839.57,16658.75 3833.24,16650.88 3832.26,16644.70 3836.62,16640.20 3846.31,16637.39"/>
        <lane id=":gneJ1_0_1" index="1" speed="7.00" length="18.69" shape="3840.53,16655.70 3836.01,16650.08 3835.31,16645.66 3838.42,16642.45 3845.35,16640.44"/>
        <lane id=":gneJ1_0_2" index="2" speed="5.58" length="18.69" shape="3841.49,16652.65 3838.78,16649.27 3838.36,16646.62 3840.23,16644.70 3844.39,16643.49"/>
        <lane id=":gneJ1_0_3" index="3" speed="3.65" length="18.69" shape="3842.46,16649.60 3841.55,16648.47 3841.41,16647.59 3842.04,16646.95 3843.42,16646.54"/>
    </edge>
    <edge id=":gneJ2_0" function="internal">
        <lane id=":gneJ2_0_0" index="0" speed="8.18" length="18.69" shape="16739.50,18789.78 16730.95,18784.40 16728.00,18778.88 16730.65,18773.20 16738.90,18767.38"/>
        <lane id=":gneJ2_0_1" index="1" speed="7.00" length="18.69" shape="16739.41,18786.58 16733.31,18782.74 16731.20,18778.79 16733.10,18774.74 16738.99,18770.58"/>
        <lane id=":gneJ2_0_2" index="2" speed="5.58" length="18.69" shape="16739.33,18783.38 16735.66,18781.07 16734.40,18778.71 16735.54,18776.28 16739.07,18773.78"/>
        <lane id=":gneJ2_0_3" index="3" speed="3.65" length="18.69" shape="16739.24,18780.18 16738.02,18779.41 16737.60,18778.62 16737.98,18777.81 16739.16,18776.98"/>
    </edge>
    <edge id=":gneJ3_0" function="internal">
        <lane id=":gneJ3_0_0" index="0" speed="8.18" length="18.69" shape="15865.47,15005.47 15860.14,14996.90 15859.90,14990.64 15864.76,14986.70 15874.73,14985.07"/>
        <lane id=":gneJ3_0_1" index="1" speed="7.00" length="18.69" shape="15866.80,15002.56 15862.98,14996.43 15862.81,14991.97 15866.29,14989.15 15873.40,14987.98"/>
        <lane id=":gneJ3_0_2" index="2" speed="5.58" length="18.69" shape="15868.12,14999.64 15865.83,14995.97 15865.73,14993.29 15867.81,14991.60 15872.08,14990.90"/>
        <lane id=":gneJ3_0_3" index="3" speed="3.65" length="18.69" shape="15869.44,14996.73 15868.68,14995.50 15868.64,14994.61 15869.34,14994.05 15870.76,14993.81"/>
    </edge>
    <edge id=":gneJ4_0" function="internal">
        <lane id=":gneJ4_0_0" index="0" speed="8.18" length="18.69" shape="17832.33,12410.19 17825.93,12402.39 17824.89,12396.21 17829.20,12391.67 17838.87,12388.77"/>
        <lane id=":gneJ4_0_1" index="1" speed="7.00" length="18.69" shape="17833.27,12407.13 17828.69,12401.56 17827.95,12397.15 17831.03,12393.90 17837.93,12391.83"/>
        <lane id=":gneJ4_0_2" index="2" speed="5.58" length="18.69" shape="17834.20,12404.07 17831.46,12400.73 17831.01,12398.08 17832.86,12396.13 17837.00,12394.89"/>
        <lane id=":gneJ4_0_3" index="3" speed="3.65" length="18.69" shape="17835.13,12401.01 17834.22,12399.90 17834.07,12399.01 17834.69,12398.36 17836.07,12397.95"/>
    </edge>
    <edge id=":gneJ5_0" function="internal">
        <lane id=":gneJ5_0_0" index="0" speed="8.18" length="18.69" shape="22105.06,16570.72 22100.97,16561.49 22101.60,16555.26 22106.96,16552.03 22117.06,16551.80"/>
        <lane id=":gneJ5_0_1" index="1" speed="7.00" length="18.69" shape="22106.78,16568.02 22103.85,16561.43 22104.30,16556.98 22108.13,16554.67 22115.34,16554.50"/>
        <lane id=":gneJ5_0_2" index="2" speed="5.58" length="18.69" shape="22108.49,16565.31 22106.73,16561.36 22107.01,16558.69 22109.30,16557.31 22113.63,16557.21"/>
        <lane id=":gneJ5_0_3" index="3" speed="3.65" length="18.69" shape="22110.20,16562.61 22109.62,16561.29 22109.71,16560.40 22110.47,16559.94 22111.92,16559.91"/>
    </edge>
    <edge id=":gneJ6_0" function="internal">
        <lane id=":gneJ6_0_0" index="0" speed="8.18" length="18.69" shape="12862.35,6847.55 12866.97,6838.57 12872.22,6835.16 12878.10,6837.31 12884.61,6845.03"/>
        <lane id=":gneJ6_0_1" index="1" speed="7.00" length="18.69" shape="12865.53,6847.19 12868.83,6840.78 12872.58,6838.34 12876.78,6839.88 12881.43,6845.39"/>
        <lane id=":gneJ6_0_2" index="2" speed="5.58" length="18.69" shape="12868.71,6846.83 12870.69,6842.98 12872.94,6841.52 12875.46,6842.44 12878.25,6845.75"/>
        <lane id=":gneJ6_0_3" index="3" speed="3.65" length="18.69" shape="12871.89,6846.47 12872.55,6845.19 12873.30,6844.70 12874.14,6845.01 12875.07,6846.11"/>
    </edge>
    <edge id=":gneJ7_0" function="internal">
        <lane id=":gneJ7_0_0" index="0" speed="8.18" length="18.69" shape="20187.53,4821.31 20184.84,4811.58 20186.40,4805.52 20192.18,4803.12 20202.19,4804.39"/>
        <lane id=":gneJ7_0_1" index="1" speed="7.00" length="18.69" shape="20189.62,4818.90 20187.71,4811.94 20188.81,4807.61 20192.94,4805.90 20200.10,4806.80"/>
        <lane id=":gneJ7_0_2" index="2" speed="5.58" length="18.69" shape="20191.72,4816.48 20190.57,4812.31 20191.23,4809.71 20193.71,4808.68 20198.00,4809.22"/>
        <lane id=":gneJ7_0_3" index="3" speed="3.65" length="18.69" shape="20193.81,4814.06 20193.43,4812.67 20193.65,4811.80 20194.48,4811.46 20195.91,4811.64"/>
    </edge>
    <edge id=":gneJ8_0" function="internal">
        <lane id=":gneJ8_0_0" index="0" speed="8.18" length="18.69" shape="30920.78,15354.78 30921.37,15364.86 30918.59,15370.47 30912.43,15371.61 30902.90,15368.28"/>
        <lane id=":gneJ8_0_1" index="1" speed="7.00" length="18.69" shape="30918.23,15356.71 30918.65,15363.91 30916.66,15367.92 30912.26,15368.73 30905.45,15366.35"/>
        <lane id=":gneJ8_0_2" index="2" speed="5.58" length="18.69" shape="30915.67,15358.64 30915.92,15362.96 30914.73,15365.36 30912.09,15365.85 30908.01,15364.42"/>
        <lane id=":gneJ8_0_3" index="3" speed="3.65" length="18.69" shape="30913.12,15360.57 30913.20,15362.01 30912.80,15362.81 30911.92,15362.97 30910.56,15362.49"/>
    </edge>
    <edge id=":gneJ9_0" function="internal">
        <lane id=":gneJ9_0_0" index="0" speed="8.18" length="18.69" shape="28776.41,18458.50 28776.66,18448.41 28779.90,18443.05 28786.13,18442.43 28795.35,18446.54"/>
        <lane id=":gneJ9_0_1" index="1" speed="7.00" length="18.69" shape="28779.12,18456.79 28779.29,18449.58 28781.61,18445.76 28786.06,18445.31 28792.64,18448.25"/>
        <lane id=":gneJ9_0_2" index="2" speed="5.58" length="18.69" shape="28781.82,18455.08 28781.93,18450.76 28783.32,18448.46 28785.99,18448.19 28789.94,18449.96"/>
        <lane id=":gneJ9_0_3" index="3" speed="3.65" length="18.69" shape="28784.53,18453.37 28784.56,18451.93 28785.03,18451.17 28785.92,18451.08 28787.23,18451.67"/>
    </edge>
    <edge id=":node1_0" function="internal">
        <lane id=":node1_0_0" index="0" speed="22.70" length="64.36" shape="6.96,21054.93 -0.96,21045.70 -6.28,21032.59 -8.98,21015.61 -9.08,20994.75"/>
        <lane id=":node1_0_1" index="1" speed="22.16" length="61.32" shape="8.94,21052.42 1.59,21043.74 -3.34,21031.26 -5.83,21014.99 -5.89,20994.92"/>
        <lane id=":node1_0_2" index="2" speed="21.61" length="58.29" shape="10.93,21049.91 4.13,21041.78 -0.40,21029.94 -2.68,21014.37 -2.69,20995.09"/>
    </edge>
    <edge id=":node1_3" function="internal">
        <lane id=":node1_3_0" index="0" speed="14.55" length="51.95" shape="12.91,21047.39 6.90,21039.32 6.62,21029.14 12.08,21016.84 23.28,21002.44"/>
        <lane id=":node1_3_1" index="1" speed="14.23" length="49.66" shape="12.91,21047.39 7.99,21040.20 8.47,21030.67 14.36,21018.80 25.65,21004.59"/>
    </edge>
    <edge id=":node1_5" function="internal">
        <lane id=":node1_5_0" index="0" speed="3.65" length="4.67" shape="12.91,21047.39 12.47,21046.02 12.65,21045.15 13.46,21044.77 14.90,21044.88"/>
    </edge>
    <edge id=":node1_6" function="internal">
        <lane id=":node1_6_0" index="0" speed="11.00" length="29.21" shape="35.11,21013.21 27.19,21022.44 22.17,21029.55 20.06,21034.51 20.85,21037.35"/>
        <lane id=":node1_6_1" index="1" speed="11.86" length="34.14" shape="32.75,21011.06 23.98,21021.53 18.75,21029.83 17.04,21035.94 18.87,21039.86"/>
        <lane id=":node1_6_2" index="2" speed="12.69" length="39.23" shape="30.38,21008.90 20.78,21020.62 15.32,21030.11 14.02,21037.36 16.88,21042.37"/>
    </edge>
    <edge id=":node1_9" function="internal">
        <lane id=":node1_9_0" index="0" speed="10.70" length="43.89" shape="28.02,21006.75 17.90,21013.18 7.70,21012.81 -0.03,21006.50 -2.69,20995.09"/>
        <lane id=":node1_9_1" index="1" speed="10.21" length="39.84" shape="28.02,21006.75 18.89,21012.45 9.75,21011.80 2.87,21005.75 0.50,20995.26"/>
    </edge>
    <edge id=":node1_11" function="internal">
        <lane id=":node1_11_0" index="0" speed="3.65" length="2.34" shape="28.02,21006.75 26.62,21007.10 25.76,21006.85"/>
    </edge>
    <edge id=":node1_19" function="internal">
        <lane id=":node1_19_0" index="0" speed="3.65" length="2.34" shape="25.76,21006.85 25.43,21006.02 25.65,21004.59"/>
    </edge>
    <edge id=":node1_12" function="internal">
        <lane id=":node1_12_0" index="0" speed="5.46" length="10.12" shape="13.29,20995.93 13.45,20999.25 14.38,21000.72 16.08,21000.35 18.55,20998.13"/>
        <lane id=":node1_12_1" index="1" speed="6.57" length="15.48" shape="13.29,20995.93 13.50,21001.28 14.84,21003.78 17.31,21003.45 20.92,21000.29"/>
    </edge>
    <edge id=":node1_14" function="internal">
        <lane id=":node1_14_0" index="0" speed="18.63" length="43.17" shape="13.29,20995.93 13.09,21011.28 14.28,21023.30 16.87,21031.99 20.85,21037.35"/>
        <lane id=":node1_14_1" index="1" speed="19.26" length="46.18" shape="10.09,20995.77 9.93,21011.90 11.34,21024.63 14.32,21033.95 18.87,21039.86"/>
        <lane id=":node1_14_2" index="2" speed="19.87" length="49.20" shape="6.90,20995.60 6.78,21012.52 8.41,21025.95 11.77,21035.91 16.88,21042.37"/>
        <lane id=":node1_14_3" index="3" speed="20.47" length="52.23" shape="3.70,20995.43 3.63,21013.14 5.47,21027.28 9.23,21037.86 14.90,21044.88"/>
    </edge>
    <edge id=":node1_18" function="internal">
        <lane id=":node1_18_0" index="0" speed="3.65" length="2.34" shape="3.70,20995.43 2.84,20996.58 2.02,20996.94"/>
    </edge>
    <edge id=":node1_20" function="internal">
        <lane id=":node1_20_0" index="0" speed="3.65" length="2.34" shape="2.02,20996.94 1.24,20996.50 0.50,20995.26"/>
    </edge>
    <edge id=":node10_0" function="internal">
        <lane id=":node10_0_0" index="0" speed="32.09" length="41.95" shape="3984.51,16687.69 3973.40,16692.04 3966.15,16696.02 3959.89,16701.47 3951.75,16710.22"/>
        <lane id=":node10_0_1" index="1" speed="32.68" length="41.95" shape="3983.40,16684.68 3972.06,16689.18 3964.40,16693.43 3957.74,16699.15 3949.39,16708.07"/>
        <lane id=":node10_0_2" index="2" speed="33.26" length="41.95" shape="3982.29,16681.68 3970.76,16686.31 3962.67,16690.85 3955.57,16696.86 3947.02,16705.91"/>
    </edge>
    <edge id=":node10_3" function="internal">
        <lane id=":node10_3_0" index="0" speed="26.52" length="50.56" shape="3982.29,16681.68 3969.41,16686.50 3957.94,16689.89 3946.42,16690.85 3933.36,16688.38"/>
        <lane id=":node10_3_1" index="1" speed="26.18" length="49.26" shape="3982.29,16681.68 3969.56,16686.02 3958.42,16688.36 3947.23,16688.27 3934.33,16685.33"/>
        <lane id=":node10_3_2" index="2" speed="25.89" length="48.16" shape="3982.29,16681.68 3969.71,16685.54 3958.91,16686.84 3948.04,16685.70 3935.29,16682.28"/>
        <lane id=":node10_3_3" index="3" speed="25.66" length="47.30" shape="3982.29,16681.68 3969.86,16685.07 3959.39,16685.31 3948.86,16683.12 3936.26,16679.22"/>
    </edge>
    <edge id=":node10_7" function="internal">
        <lane id=":node10_7_0" index="0" speed="10.99" length="35.17" shape="3981.18,16678.68 3971.36,16680.65 3964.10,16678.52 3959.59,16672.44 3958.04,16662.55"/>
    </edge>
    <edge id=":node10_8" function="internal">
        <lane id=":node10_8_0" index="0" speed="3.65" length="2.34" shape="3981.18,16678.68 3979.78,16678.35 3979.13,16677.73"/>
    </edge>
    <edge id=":node10_31" function="internal">
        <lane id=":node10_31_0" index="0" speed="3.65" length="2.34" shape="3979.13,16677.73 3979.22,16676.84 3980.07,16675.68"/>
    </edge>
    <edge id=":node10_9" function="internal">
        <lane id=":node10_9_0" index="0" speed="5.88" length="9.11" shape="3970.84,16662.56 3971.21,16665.17 3972.32,16666.73 3974.16,16667.23 3976.75,16666.67"/>
    </edge>
    <edge id=":node10_10" function="internal">
        <lane id=":node10_10_0" index="0" speed="24.77" length="49.31" shape="3970.84,16662.56 3969.75,16676.36 3966.34,16688.34 3960.41,16699.35 3951.75,16710.22"/>
        <lane id=":node10_10_1" index="1" speed="24.23" length="49.31" shape="3967.64,16662.55 3966.68,16676.02 3963.56,16687.26 3957.92,16697.53 3949.39,16708.07"/>
        <lane id=":node10_10_2" index="2" speed="23.69" length="49.31" shape="3964.44,16662.55 3963.61,16675.68 3960.78,16686.19 3955.42,16695.71 3947.02,16705.91"/>
        <lane id=":node10_10_3" index="3" speed="23.13" length="49.31" shape="3961.24,16662.55 3960.54,16675.35 3957.99,16685.11 3952.92,16693.89 3944.65,16703.76"/>
    </edge>
    <edge id=":node10_14" function="internal">
        <lane id=":node10_14_0" index="0" speed="11.45" length="37.19" shape="3961.24,16662.55 3959.57,16672.90 3954.71,16679.03 3946.87,16681.09 3936.26,16679.22"/>
    </edge>
    <edge id=":node10_15" function="internal">
        <lane id=":node10_15_0" index="0" speed="3.65" length="2.34" shape="3961.24,16662.55 3960.44,16663.75 3959.64,16664.15"/>
    </edge>
    <edge id=":node10_32" function="internal">
        <lane id=":node10_32_0" index="0" speed="3.65" length="2.34" shape="3959.64,16664.15 3958.84,16663.75 3958.04,16662.55"/>
    </edge>
    <edge id=":node10_16" function="internal">
        <lane id=":node10_16_0" index="0" speed="6.65" length="11.69" shape="3940.11,16667.02 3943.76,16667.73 3946.36,16667.21 3947.92,16665.49 3948.44,16662.54"/>
    </edge>
    <edge id=":node10_17" function="internal">
        <lane id=":node10_17_0" index="0" speed="22.96" length="40.99" shape="3940.11,16667.02 3950.79,16670.18 3958.54,16671.29 3966.23,16670.18 3976.75,16666.67"/>
        <lane id=":node10_17_1" index="1" speed="23.60" length="40.99" shape="3939.15,16670.07 3950.43,16673.41 3958.61,16674.57 3966.74,16673.38 3977.86,16669.67"/>
        <lane id=":node10_17_2" index="2" speed="24.21" length="40.99" shape="3938.18,16673.12 3949.96,16676.57 3958.69,16677.76 3967.36,16676.51 3978.97,16672.68"/>
        <lane id=":node10_17_3" index="3" speed="24.78" length="40.99" shape="3937.22,16676.17 3949.32,16679.61 3958.76,16680.78 3968.14,16679.52 3980.07,16675.68"/>
    </edge>
    <edge id=":node10_21" function="internal">
        <lane id=":node10_21_0" index="0" speed="10.87" length="36.03" shape="3937.22,16676.17 3946.27,16680.85 3950.62,16687.36 3950.13,16695.17 3944.65,16703.76"/>
    </edge>
    <edge id=":node10_22" function="internal">
        <lane id=":node10_22_0" index="0" speed="5.77" length="9.16" shape="3935.19,16695.14 3936.71,16692.92 3936.92,16691.05 3935.80,16689.54 3933.36,16688.38"/>
    </edge>
    <edge id=":node10_23" function="internal">
        <lane id=":node10_23_0" index="0" speed="20.67" length="36.61" shape="3935.19,16695.14 3942.26,16687.03 3946.25,16680.56 3948.03,16673.23 3948.44,16662.54"/>
        <lane id=":node10_23_1" index="1" speed="21.07" length="38.03" shape="3935.19,16695.14 3942.94,16686.92 3948.02,16680.63 3950.80,16673.44 3951.64,16662.54"/>
        <lane id=":node10_23_2" index="2" speed="21.71" length="40.41" shape="3937.55,16697.30 3945.77,16688.54 3951.09,16681.82 3953.98,16674.14 3954.84,16662.54"/>
        <lane id=":node10_23_3" index="3" speed="22.15" length="42.06" shape="3937.55,16697.30 3946.43,16688.44 3952.84,16681.88 3956.73,16674.33 3958.04,16662.55"/>
    </edge>
    <edge id=":node10_27" function="internal">
        <lane id=":node10_27_0" index="0" speed="35.48" length="47.96" shape="3937.55,16697.30 3946.89,16687.72 3955.72,16680.54 3965.54,16674.83 3977.86,16669.67"/>
        <lane id=":node10_27_1" index="1" speed="34.93" length="47.96" shape="3939.92,16699.45 3949.06,16690.00 3957.46,16683.12 3966.84,16677.70 3978.97,16672.68"/>
        <lane id=":node10_27_2" index="2" speed="34.38" length="47.96" shape="3942.29,16701.61 3951.23,16692.29 3959.19,16685.69 3968.15,16680.57 3980.07,16675.68"/>
    </edge>
    <edge id=":node10_30" function="internal">
        <lane id=":node10_30_0" index="0" speed="3.65" length="2.34" shape="3942.29,16701.61 3943.69,16701.26 3944.55,16701.50"/>
    </edge>
    <edge id=":node10_33" function="internal">
        <lane id=":node10_33_0" index="0" speed="3.65" length="2.34" shape="3944.55,16701.50 3944.87,16702.33 3944.65,16703.76"/>
    </edge>
    <edge id=":node11_0" function="internal">
        <lane id=":node11_0_0" index="0" speed="18.21" length="25.26" shape="13646.36,23973.57 13641.98,23978.59 13638.64,23982.07 13636.49,23985.97 13635.68,23992.20"/>
        <lane id=":node11_0_1" index="1" speed="19.01" length="25.26" shape="13643.80,23971.64 13639.07,23977.15 13635.54,23981.02 13633.31,23985.33 13632.48,23992.17"/>
        <lane id=":node11_0_2" index="2" speed="19.78" length="25.26" shape="13641.25,23969.71 13636.17,23975.71 13632.45,23979.97 13630.13,23984.70 13629.28,23992.14"/>
        <lane id=":node11_0_3" index="3" speed="20.52" length="25.26" shape="13638.69,23967.79 13633.26,23974.28 13629.35,23978.91 13626.96,23984.07 13626.08,23992.10"/>
    </edge>
    <edge id=":node11_4" function="internal">
        <lane id=":node11_4_0" index="0" speed="11.56" length="8.82" shape="13638.69,23967.79 13632.55,23974.11"/>
        <lane id=":node11_4_1" index="1" speed="11.07" length="7.09" shape="13638.69,23967.79 13633.65,23972.78"/>
    </edge>
    <edge id=":node11_6" function="internal">
        <lane id=":node11_6_0" index="0" speed="3.65" length="1.44" shape="13638.69,23967.79 13637.33,23968.27"/>
    </edge>
    <edge id=":node11_21" function="internal">
        <lane id=":node11_21_0" index="0" speed="11.56" length="28.98" shape="13632.55,23974.11 13631.01,23975.69 13623.33,23978.83 13615.70,23976.85 13608.18,23969.39"/>
    </edge>
    <edge id=":node11_22" function="internal">
        <lane id=":node11_22_0" index="0" speed="11.07" length="27.44" shape="13633.65,23972.78 13631.67,23974.74 13624.64,23977.01 13617.65,23974.60 13610.77,23967.51"/>
    </edge>
    <edge id=":node11_23" function="internal">
        <lane id=":node11_23_0" index="0" speed="3.65" length="3.23" shape="13637.33,23968.27 13636.45,23968.10 13636.05,23967.30 13636.13,23965.86"/>
    </edge>
    <edge id=":node11_7" function="internal">
        <lane id=":node11_7_0" index="0" speed="5.96" length="9.09" shape="13621.14,23960.01 13622.96,23961.89 13624.78,23962.53 13626.62,23961.93 13628.47,23960.09"/>
        <lane id=":node11_7_1" index="1" speed="6.83" length="12.36" shape="13621.14,23960.01 13623.85,23963.03 13626.40,23964.37 13628.79,23964.03 13631.02,23962.01"/>
    </edge>
    <edge id=":node11_9" function="internal">
        <lane id=":node11_9_0" index="0" speed="23.23" length="33.39" shape="13621.14,23960.01 13627.81,23968.60 13632.36,23974.85 13634.94,23981.74 13635.68,23992.20"/>
        <lane id=":node11_9_1" index="1" speed="22.57" length="33.39" shape="13618.55,23961.89 13624.87,23969.97 13629.24,23975.84 13631.75,23982.31 13632.48,23992.17"/>
        <lane id=":node11_9_2" index="2" speed="21.90" length="33.39" shape="13615.96,23963.76 13621.94,23971.35 13626.13,23976.84 13628.56,23982.88 13629.28,23992.14"/>
        <lane id=":node11_9_3" index="3" speed="21.20" length="33.39" shape="13613.36,23965.64 13619.00,23972.73 13623.01,23977.83 13625.37,23983.45 13626.08,23992.10"/>
    </edge>
    <edge id=":node11_13" function="internal">
        <lane id=":node11_13_0" index="0" speed="3.65" length="2.34" shape="13613.36,23965.64 13613.42,23967.08 13613.00,23967.87"/>
    </edge>
    <edge id=":node11_24" function="internal">
        <lane id=":node11_24_0" index="0" speed="3.65" length="2.34" shape="13613.00,23967.87 13612.12,23968.02 13610.77,23967.51"/>
    </edge>
    <edge id=":node11_14" function="internal">
        <lane id=":node11_14_0" index="0" speed="18.18" length="22.21" shape="13613.28,23991.97 13612.61,23985.72 13610.54,23981.79 13607.27,23978.24 13602.99,23973.14"/>
        <lane id=":node11_14_1" index="1" speed="18.40" length="22.77" shape="13613.28,23991.97 13613.04,23985.33 13611.90,23980.83 13609.53,23976.72 13605.58,23971.26"/>
    </edge>
    <edge id=":node11_16" function="internal">
        <lane id=":node11_16_0" index="0" speed="23.26" length="33.38" shape="13613.28,23991.97 13614.24,23981.52 13616.96,23974.69 13621.64,23968.53 13628.47,23960.09"/>
        <lane id=":node11_16_1" index="1" speed="22.61" length="33.38" shape="13616.48,23992.00 13617.42,23982.16 13620.06,23975.75 13624.55,23969.97 13631.02,23962.01"/>
        <lane id=":node11_16_2" index="2" speed="21.93" length="33.38" shape="13619.68,23992.04 13620.60,23982.79 13623.16,23976.80 13627.45,23971.40 13633.58,23963.94"/>
        <lane id=":node11_16_3" index="3" speed="21.24" length="33.38" shape="13622.88,23992.07 13623.78,23983.43 13626.25,23977.86 13630.36,23972.84 13636.13,23965.86"/>
    </edge>
    <edge id=":node11_20" function="internal">
        <lane id=":node11_20_0" index="0" speed="3.65" length="1.44" shape="13622.88,23992.07 13623.70,23990.88"/>
    </edge>
    <edge id=":node11_25" function="internal">
        <lane id=":node11_25_0" index="0" speed="3.65" length="3.23" shape="13623.70,23990.88 13624.50,23990.49 13625.30,23990.89 13626.08,23992.10"/>
    </edge>
    <edge id=":node12_0" function="internal">
        <lane id=":node12_0_0" index="0" speed="14.71" length="40.56" shape="17590.15,18779.90 17579.13,18776.81 17569.37,18777.10 17560.88,18780.78 17553.65,18787.84"/>
    </edge>
    <edge id=":node12_1" function="internal">
        <lane id=":node12_1_0" index="0" speed="26.95" length="60.11" shape="17590.15,18779.90 17576.20,18774.87 17562.06,18771.26 17547.64,18769.16 17532.85,18768.71"/>
        <lane id=":node12_1_1" index="1" speed="26.95" length="60.11" shape="17591.37,18776.94 17577.21,18771.88 17562.62,18768.18 17547.75,18766.00 17532.77,18765.51"/>
        <lane id=":node12_1_2" index="2" speed="26.95" length="60.11" shape="17592.58,18773.98 17578.22,18768.88 17563.19,18765.10 17547.87,18762.84 17532.68,18762.31"/>
    </edge>
    <edge id=":node12_4" function="internal">
        <lane id=":node12_4_0" index="0" speed="24.65" length="57.45" shape="17592.58,18773.98 17577.48,18766.61 17565.34,18758.09 17556.14,18748.43 17549.90,18737.62"/>
        <lane id=":node12_4_1" index="1" speed="24.11" length="54.94" shape="17593.79,18771.02 17579.26,18763.94 17567.60,18755.82 17558.80,18746.63 17552.86,18736.39"/>
    </edge>
    <edge id=":node12_6" function="internal">
        <lane id=":node12_6_0" index="0" speed="10.40" length="39.01" shape="17593.79,18771.02 17585.18,18764.70 17582.21,18756.39 17584.91,18747.99 17593.31,18741.40"/>
    </edge>
    <edge id=":node12_7" function="internal">
        <lane id=":node12_7_0" index="0" speed="3.65" length="4.67" shape="17593.79,18771.02 17592.99,18769.82 17592.92,18768.93 17593.59,18768.34 17595.01,18768.06"/>
    </edge>
    <edge id=":node12_8" function="internal">
        <lane id=":node12_8_0" index="0" speed="5.49" length="9.66" shape="17598.55,18753.08 17595.91,18754.65 17595.05,18756.18 17595.96,18757.69 17598.65,18759.17"/>
    </edge>
    <edge id=":node12_9" function="internal">
        <lane id=":node12_9_0" index="0" speed="36.48" length="58.32" shape="17598.55,18753.08 17585.13,18759.41 17572.49,18766.57 17561.02,18775.19 17551.10,18785.91"/>
    </edge>
    <edge id=":node12_10" function="internal">
        <lane id=":node12_10_0" index="0" speed="26.95" length="65.99" shape="17598.55,18753.08 17583.40,18758.90 17566.35,18763.76 17548.98,18767.19 17532.85,18768.71"/>
        <lane id=":node12_10_1" index="1" speed="26.95" length="65.99" shape="17597.24,18750.16 17582.28,18755.93 17565.66,18760.70 17548.71,18764.04 17532.77,18765.51"/>
        <lane id=":node12_10_2" index="2" speed="26.95" length="65.99" shape="17595.93,18747.24 17581.16,18752.97 17564.96,18757.64 17548.43,18760.88 17532.68,18762.31"/>
        <lane id=":node12_10_3" index="3" speed="26.95" length="65.99" shape="17594.62,18744.32 17580.04,18750.01 17564.26,18754.58 17548.16,18757.73 17532.60,18759.11"/>
    </edge>
    <edge id=":node12_14" function="internal">
        <lane id=":node12_14_0" index="0" speed="14.26" length="48.23" shape="17594.62,18744.32 17579.87,18749.27 17567.99,18749.59 17558.99,18745.30 17552.86,18736.39"/>
    </edge>
    <edge id=":node12_15" function="internal">
        <lane id=":node12_15_0" index="0" speed="3.65" length="2.34" shape="17594.62,18744.32 17593.20,18744.08 17592.51,18743.51"/>
    </edge>
    <edge id=":node12_39" function="internal">
        <lane id=":node12_39_0" index="0" speed="3.65" length="2.34" shape="17592.51,18743.51 17592.55,18742.62 17593.31,18741.40"/>
    </edge>
    <edge id=":node12_16" function="internal">
        <lane id=":node12_16_0" index="0" speed="10.85" length="27.49" shape="17564.67,18731.45 17567.83,18735.40 17573.01,18736.91 17580.19,18735.99 17589.39,18732.64"/>
    </edge>
    <edge id=":node12_17" function="internal">
        <lane id=":node12_17_0" index="0" speed="21.82" length="44.90" shape="17564.67,18731.45 17569.40,18739.42 17576.64,18746.70 17586.39,18753.29 17598.65,18759.17"/>
        <lane id=":node12_17_1" index="1" speed="22.41" length="47.41" shape="17561.71,18732.68 17566.75,18741.23 17574.38,18748.98 17584.61,18755.95 17597.43,18762.13"/>
        <lane id=":node12_17_2" index="2" speed="22.99" length="49.92" shape="17558.76,18733.92 17564.10,18743.03 17572.12,18751.26 17582.83,18758.62 17596.22,18765.09"/>
    </edge>
    <edge id=":node12_20" function="internal">
        <lane id=":node12_20_0" index="0" speed="19.54" length="53.55" shape="17558.76,18733.92 17561.80,18745.85 17561.12,18758.17 17556.69,18770.88 17548.54,18783.99"/>
        <lane id=":node12_20_1" index="1" speed="18.93" length="50.21" shape="17555.81,18735.15 17558.61,18746.25 17557.91,18757.77 17553.70,18769.70 17545.98,18782.06"/>
    </edge>
    <edge id=":node12_22" function="internal">
        <lane id=":node12_22_0" index="0" speed="11.87" length="41.68" shape="17555.81,18735.15 17557.80,18746.04 17553.83,18753.36 17545.04,18757.56 17532.60,18759.11"/>
    </edge>
    <edge id=":node12_23" function="internal">
        <lane id=":node12_23_0" index="0" speed="3.65" length="2.34" shape="17555.81,18735.15 17555.53,18736.57 17554.95,18737.25"/>
    </edge>
    <edge id=":node12_40" function="internal">
        <lane id=":node12_40_0" index="0" speed="3.65" length="2.34" shape="17554.95,18737.25 17554.06,18737.19 17552.86,18736.39"/>
    </edge>
    <edge id=":node12_24" function="internal">
        <lane id=":node12_24_0" index="0" speed="7.43" length="15.51" shape="17532.26,18746.31 17538.31,18745.78 17542.29,18744.57 17544.18,18742.67 17544.00,18740.09"/>
    </edge>
    <edge id=":node12_25" function="internal">
        <lane id=":node12_25_0" index="0" speed="26.95" length="59.11" shape="17532.26,18746.31 17547.05,18745.10 17561.47,18742.35 17575.57,18738.15 17589.39,18732.64"/>
        <lane id=":node12_25_1" index="1" speed="26.95" length="60.36" shape="17532.34,18749.51 17547.33,18748.26 17562.17,18745.40 17576.69,18741.12 17590.70,18735.56"/>