<configuration xmlns:xsi="http://www.w3.org/2001/XMLSchema-instance" xsi:noNamespaceSchemaLocation="http://sumo.dlr.de/xsd/sumoConfiguration.xsd">

    <input>
        <net-file value="12nodes.net.xml" />
        <additional-files value="12nodes.taz.xml" />
    </input>

    <time>
        <begin value="0" />
        <end value="691200" />
    </time>

    </configuration>