<?xml version="1.0" encoding="UTF-8"?>

<!-- generated on 2024-02-18 09:39:56 by Eclipse SUMO netedit Version 1.18.0
<configuration xmlns:xsi="http://www.w3.org/2001/XMLSchema-instance" xsi:noNamespaceSchemaLocation="http://sumo.dlr.de/xsd/neteditConfiguration.xsd">

    <input>
        <sumocfg-file value="D:\Projects\ev-load-pred\sim_main.sumocfg"/>
        <additional-files value="D:\Projects\ev-load-pred\sim_main.taz.xml"/>
        <route-files value=""/>
        <sumo-net-file value="D:\Projects\ev-load-pred\sim_main.net.xml"/>
    </input>

    <output>
        <output-file value="D:\Projects\ev-load-pred\sim_main.net.xml"/>
    </output>

    <processing>
        <geometry.min-radius.fix.railways value="false"/>
        <geometry.max-grade.fix value="false"/>
        <offset.disable-normalization value="true"/>
        <lefthand value="0"/>
    </processing>

    <junctions>
        <no-turnarounds value="true"/>
        <junctions.corner-detail value="5"/>
        <junctions.limit-turn-speed value="5.50"/>
        <rectangular-lane-cut value="0"/>
    </junctions>

    <pedestrian>
        <walkingareas value="0"/>
    </pedestrian>

</configuration>
-->

<net version="1.16" junctionCornerDetail="5" limitTurnSpeed="5.50" xmlns:xsi="http://www.w3.org/2001/XMLSchema-instance" xsi:noNamespaceSchemaLocation="http://sumo.dlr.de/xsd/net_file.xsd">

    <location netOffset="0.00,0.00" convBoundary="-119.27,-172.30,271.96,194.46" origBoundary="-10000000000.00,-10000000000.00,10000000000.00,10000000000.00" projParameter="!"/>

    <edge id=":T1_0" function="internal">
        <lane id=":T1_0_0" index="0" speed="13.89" length="26.32" shape="28.45,160.42 27.00,156.06 23.29,150.81 18.27,145.17 12.85,139.64"/>
    </edge>
    <edge id=":T1_1" function="internal">
        <lane id=":T1_1_0" index="0" speed="13.89" length="29.97" shape="28.45,160.42 27.93,155.05 26.81,147.36 25.70,138.73 25.20,130.55"/>
        <lane id=":T1_1_1" index="1" speed="13.89" length="29.97" shape="28.45,160.42 28.40,130.55"/>
    </edge>
    <edge id=":T1_3" function="internal">
        <lane id=":T1_3_0" index="0" speed="9.24" length="6.19" shape="28.45,160.42 29.17,155.16 29.62,154.41"/>
    </edge>
    <edge id=":T1_17" function="internal">
        <lane id=":T1_17_0" index="0" speed="9.24" length="13.16" shape="29.62,154.41 31.41,151.41 35.15,149.15 40.40,148.40"/>
    </edge>
    <edge id=":T1_4" function="internal">
        <lane id=":T1_4_0" index="0" speed="7.31" length="11.70" shape="40.40,154.80 36.56,155.15 33.82,156.20 32.18,157.95 31.65,160.41"/>
    </edge>
    <edge id=":T1_5" function="internal">
        <lane id=":T1_5_0" index="0" speed="13.89" length="32.17" shape="40.40,154.80 34.03,153.85 27.32,151.01 20.26,146.27 12.85,139.64"/>
        <lane id=":T1_5_1" index="1" speed="13.89" length="29.67" shape="40.40,151.60 34.67,150.71 28.55,148.04 22.03,143.60 15.11,137.38"/>
    </edge>
    <edge id=":T1_7" function="internal">
        <lane id=":T1_7_0" index="0" speed="10.87" length="9.12" shape="40.40,151.60 35.15,150.28 32.59,147.59"/>
    </edge>
    <edge id=":T1_8" function="internal">
        <lane id=":T1_8_0" index="0" speed="3.65" length="1.44" shape="40.40,151.60 39.20,150.80"/>
    </edge>
    <edge id=":T1_18" function="internal">
        <lane id=":T1_18_0" index="0" speed="10.87" length="17.93" shape="32.59,147.59 31.40,146.34 29.15,139.76 28.40,130.55"/>
    </edge>
    <edge id=":T1_19" function="internal">
        <lane id=":T1_19_0" index="0" speed="3.65" length="3.23" shape="39.20,150.80 38.80,150.00 39.20,149.20 40.40,148.40"/>
    </edge>
    <edge id=":T1_9" function="internal">
        <lane id=":T1_9_0" index="0" speed="8.71" length="16.99" shape="34.80,130.55 35.15,136.96 36.20,141.54 37.95,144.28 40.40,145.20"/>
    </edge>
    <edge id=":T1_10" function="internal">
        <lane id=":T1_10_0" index="0" speed="13.89" length="30.04" shape="34.80,130.55 34.30,138.73 33.21,147.35 32.13,155.04 31.65,160.41"/>
    </edge>
    <edge id=":T1_11" function="internal">
        <lane id=":T1_11_0" index="0" speed="8.14" length="2.93" shape="31.60,130.55 30.88,133.39"/>
    </edge>
    <edge id=":T1_12" function="internal">
        <lane id=":T1_12_0" index="0" speed="3.65" length="1.44" shape="31.60,130.55 30.80,131.75"/>
    </edge>
    <edge id=":T1_20" function="internal">
        <lane id=":T1_20_0" index="0" speed="8.14" length="20.64" shape="30.88,133.39 30.01,136.78 25.99,140.31 20.65,140.66 15.11,137.38"/>
    </edge>
    <edge id=":T1_21" function="internal">
        <lane id=":T1_21_0" index="0" speed="3.65" length="3.23" shape="30.80,131.75 30.00,132.15 29.20,131.75 28.40,130.55"/>
    </edge>
    <edge id=":T1_13" function="internal">
        <lane id=":T1_13_0" index="0" speed="5.47" length="9.74" shape="19.64,132.85 22.07,134.79 23.81,135.06 24.85,133.64 25.20,130.55"/>
    </edge>
    <edge id=":T1_14" function="internal">
        <lane id=":T1_14_0" index="0" speed="13.89" length="26.24" shape="19.64,132.85 26.77,139.65 32.60,144.51 37.15,147.43 40.40,148.40"/>
    </edge>
    <edge id=":T1_15" function="internal">
        <lane id=":T1_15_0" index="0" speed="13.89" length="4.99" shape="17.38,135.11 20.58,138.94"/>
    </edge>
    <edge id=":T1_16" function="internal">
        <lane id=":T1_16_0" index="0" speed="3.65" length="1.44" shape="17.38,135.11 17.66,136.53"/>
    </edge>
    <edge id=":T1_22" function="internal">
        <lane id=":T1_22_0" index="0" speed="13.89" length="24.41" shape="20.58,138.94 22.59,141.35 27.16,148.54 30.40,155.34 31.65,160.41"/>
    </edge>
    <edge id=":T1_23" function="internal">
        <lane id=":T1_23_0" index="0" speed="3.65" length="3.23" shape="17.66,136.53 17.38,137.38 16.53,137.66 15.11,137.38"/>
    </edge>
    <edge id=":T10_0" function="internal">
        <lane id=":T10_0_0" index="0" speed="8.71" length="16.99" shape="225.20,-19.60 224.28,-22.05 221.54,-23.80 216.96,-24.85 210.55,-25.20"/>
    </edge>
    <edge id=":T10_1" function="internal">
        <lane id=":T10_1_0" index="0" speed="13.89" length="24.66" shape="225.20,-19.60 224.43,-24.05 222.11,-29.00 218.25,-34.43 212.85,-40.36"/>
        <lane id=":T10_1_1" index="1" speed="13.89" length="27.16" shape="228.40,-19.60 227.57,-24.69 225.08,-30.22 220.93,-36.20 215.11,-42.62"/>
    </edge>
    <edge id=":T10_3" function="internal">
        <lane id=":T10_3_0" index="0" speed="9.23" length="2.40" shape="228.40,-19.60 228.74,-21.98"/>
    </edge>
    <edge id=":T10_4" function="internal">
        <lane id=":T10_4_0" index="0" speed="3.65" length="1.29" shape="228.40,-19.60 229.12,-20.68"/>
    </edge>
    <edge id=":T10_17" function="internal">
        <lane id=":T10_17_0" index="0" speed="9.23" length="16.95" shape="228.74,-21.98 229.15,-24.85 231.41,-28.59 235.17,-30.81 240.43,-31.53"/>
    </edge>
    <edge id=":T10_18" function="internal">
        <lane id=":T10_18_0" index="0" speed="3.65" length="3.38" shape="229.12,-20.68 229.20,-20.80 230.00,-21.20 230.80,-20.80 231.60,-19.60"/>
    </edge>
    <edge id=":T10_5" function="internal">
        <lane id=":T10_5_0" index="0" speed="7.30" length="11.68" shape="240.41,-28.33 237.96,-27.80 236.20,-26.16 235.15,-23.43 234.80,-19.60"/>
    </edge>
    <edge id=":T10_6" function="internal">
        <lane id=":T10_6_0" index="0" speed="13.89" length="29.95" shape="240.41,-28.33 235.04,-27.85 227.36,-26.78 218.73,-25.69 210.55,-25.20"/>
        <lane id=":T10_6_1" index="1" speed="13.89" length="29.95" shape="240.41,-28.33 210.55,-28.40"/>
    </edge>
    <edge id=":T10_8" function="internal">
        <lane id=":T10_8_0" index="0" speed="13.89" length="4.82" shape="240.41,-28.33 235.73,-29.48"/>
    </edge>
    <edge id=":T10_19" function="internal">
        <lane id=":T10_19_0" index="0" speed="13.89" length="24.59" shape="235.73,-29.48 235.34,-29.58 228.54,-32.84 221.35,-37.41 215.11,-42.62"/>
    </edge>
    <edge id=":T10_9" function="internal">
        <lane id=":T10_9_0" index="0" speed="13.89" length="26.34" shape="219.64,-47.15 225.17,-41.73 230.81,-36.70 236.07,-32.99 240.43,-31.53"/>
    </edge>
    <edge id=":T10_10" function="internal">
        <lane id=":T10_10_0" index="0" speed="13.89" length="29.67" shape="217.38,-44.89 223.60,-37.97 228.04,-31.45 230.71,-25.33 231.60,-19.60"/>
    </edge>
    <edge id=":T10_11" function="internal">
        <lane id=":T10_11_0" index="0" speed="8.14" length="3.59" shape="217.38,-44.89 219.21,-41.79"/>
    </edge>
    <edge id=":T10_12" function="internal">
        <lane id=":T10_12_0" index="0" speed="3.65" length="1.44" shape="217.38,-44.89 217.66,-43.47"/>
    </edge>
    <edge id=":T10_20" function="internal">
        <lane id=":T10_20_0" index="0" speed="8.14" length="19.97" shape="219.21,-41.79 220.66,-39.35 220.31,-34.01 216.78,-29.99 210.55,-28.40"/>
    </edge>
    <edge id=":T10_21" function="internal">
        <lane id=":T10_21_0" index="0" speed="3.65" length="3.23" shape="217.66,-43.47 217.38,-42.62 216.53,-42.34 215.11,-42.62"/>
    </edge>
    <edge id=":T10_13" function="internal">
        <lane id=":T10_13_0" index="0" speed="5.47" length="9.74" shape="210.55,-34.80 213.64,-35.15 215.06,-36.19 214.79,-37.93 212.85,-40.36"/>
    </edge>
    <edge id=":T10_14" function="internal">
        <lane id=":T10_14_0" index="0" speed="13.89" length="30.08" shape="210.55,-34.80 218.73,-34.29 227.37,-33.18 235.06,-32.05 240.43,-31.53"/>
    </edge>
    <edge id=":T10_15" function="internal">
        <lane id=":T10_15_0" index="0" speed="10.87" length="8.93" shape="210.55,-31.60 219.45,-30.87"/>
    </edge>
    <edge id=":T10_16" function="internal">
        <lane id=":T10_16_0" index="0" speed="3.65" length="1.44" shape="210.55,-31.60 211.75,-30.80"/>
    </edge>
    <edge id=":T10_22" function="internal">
        <lane id=":T10_22_0" index="0" speed="10.87" length="18.12" shape="219.45,-30.87 219.76,-30.85 226.34,-28.60 230.28,-24.85 231.60,-19.60"/>
    </edge>
    <edge id=":T10_23" function="internal">
        <lane id=":T10_23_0" index="0" speed="3.65" length="3.23" shape="211.75,-30.80 212.15,-30.00 211.75,-29.20 210.55,-28.40"/>
    </edge>
    <edge id=":T11_0" function="internal">
        <lane id=":T11_0_0" index="0" speed="5.47" length="9.74" shape="25.20,-110.55 24.85,-113.64 23.81,-115.06 22.07,-114.79 19.64,-112.85"/>
    </edge>
    <edge id=":T11_1" function="internal">
        <lane id=":T11_1_0" index="0" speed="9.45" length="30.06" shape="25.20,-110.55 25.70,-118.73 26.81,-127.36 27.93,-135.05 28.44,-140.42"/>
    </edge>
    <edge id=":T11_2" function="internal">
        <lane id=":T11_2_0" index="0" speed="10.87" length="8.80" shape="28.40,-110.55 29.11,-119.32"/>
    </edge>
    <edge id=":T11_3" function="internal">
        <lane id=":T11_3_0" index="0" speed="3.65" length="1.44" shape="28.40,-110.55 29.20,-111.75"/>
    </edge>
    <edge id=":T11_17" function="internal">
        <lane id=":T11_17_0" index="0" speed="10.87" length="18.25" shape="29.11,-119.32 29.15,-119.76 31.40,-126.34 35.15,-130.28 40.40,-131.60"/>
    </edge>
    <edge id=":T11_18" function="internal">
        <lane id=":T11_18_0" index="0" speed="3.65" length="3.23" shape="29.20,-111.75 30.00,-112.15 30.80,-111.75 31.60,-110.55"/>
    </edge>
    <edge id=":T11_4" function="internal">
        <lane id=":T11_4_0" index="0" speed="8.71" length="16.99" shape="40.40,-125.20 37.95,-124.28 36.20,-121.54 35.15,-116.96 34.80,-110.55"/>
    </edge>
    <edge id=":T11_5" function="internal">
        <lane id=":T11_5_0" index="0" speed="13.89" length="24.66" shape="40.40,-125.20 35.95,-124.43 31.00,-122.11 25.57,-118.25 19.64,-112.85"/>
        <lane id=":T11_5_1" index="1" speed="13.89" length="27.16" shape="40.40,-128.40 35.31,-127.57 29.78,-125.08 23.80,-120.93 17.38,-115.11"/>
    </edge>
    <edge id=":T11_7" function="internal">
        <lane id=":T11_7_0" index="0" speed="9.25" length="2.40" shape="40.40,-128.40 38.02,-128.74"/>
    </edge>
    <edge id=":T11_8" function="internal">
        <lane id=":T11_8_0" index="0" speed="3.65" length="1.29" shape="40.40,-128.40 39.32,-129.12"/>
    </edge>
    <edge id=":T11_19" function="internal">
        <lane id=":T11_19_0" index="0" speed="9.25" length="16.95" shape="38.02,-128.74 35.15,-129.15 31.41,-131.40 29.17,-135.16 28.44,-140.42"/>
    </edge>
    <edge id=":T11_20" function="internal">
        <lane id=":T11_20_0" index="0" speed="3.65" length="3.38" shape="39.32,-129.12 39.20,-129.20 38.80,-130.00 39.20,-130.80 40.40,-131.60"/>
    </edge>
    <edge id=":T11_9" function="internal">
        <lane id=":T11_9_0" index="0" speed="7.31" length="11.70" shape="31.64,-140.41 32.18,-137.95 33.82,-136.20 36.56,-135.15 40.40,-134.80"/>
    </edge>
    <edge id=":T11_10" function="internal">
        <lane id=":T11_10_0" index="0" speed="16.95" length="29.95" shape="31.64,-140.41 32.13,-135.04 33.21,-127.35 34.30,-118.73 34.80,-110.55"/>
        <lane id=":T11_10_1" index="1" speed="16.95" length="29.95" shape="31.64,-140.41 31.60,-110.55"/>
    </edge>
    <edge id=":T11_12" function="internal">
        <lane id=":T11_12_0" index="0" speed="16.95" length="29.39" shape="31.64,-140.41 30.40,-135.34 27.15,-128.54 22.59,-121.35 17.38,-115.11"/>
    </edge>
    <edge id=":T11_13" function="internal">
        <lane id=":T11_13_0" index="0" speed="9.45" length="26.31" shape="12.85,-119.64 18.27,-125.17 23.29,-130.81 26.99,-136.06 28.44,-140.42"/>
    </edge>
    <edge id=":T11_14" function="internal">
        <lane id=":T11_14_0" index="0" speed="13.89" length="29.67" shape="15.11,-117.38 22.03,-123.60 28.55,-128.04 34.67,-130.71 40.40,-131.60"/>
    </edge>
    <edge id=":T11_15" function="internal">
        <lane id=":T11_15_0" index="0" speed="8.14" length="3.59" shape="15.11,-117.38 18.21,-119.21"/>
    </edge>
    <edge id=":T11_16" function="internal">
        <lane id=":T11_16_0" index="0" speed="3.65" length="1.44" shape="15.11,-117.38 16.53,-117.66"/>
    </edge>
    <edge id=":T11_21" function="internal">
        <lane id=":T11_21_0" index="0" speed="8.14" length="19.97" shape="18.21,-119.21 20.65,-120.66 25.99,-120.31 30.01,-116.78 31.60,-110.55"/>
    </edge>
    <edge id=":T11_22" function="internal">
        <lane id=":T11_22_0" index="0" speed="3.65" length="3.23" shape="16.53,-117.66 17.38,-117.38 17.66,-116.53 17.38,-115.11"/>
    </edge>
    <edge id=":T12_0" function="internal">
        <lane id=":T12_0_0" index="0" speed="8.71" length="16.99" shape="125.20,-110.55 124.85,-116.96 123.80,-121.54 122.05,-124.28 119.60,-125.20"/>
    </edge>
    <edge id=":T12_1" function="internal">
        <lane id=":T12_1_0" index="0" speed="13.89" length="30.03" shape="125.20,-110.55 125.71,-118.73 126.82,-127.34 127.95,-135.02 128.48,-140.39"/>
    </edge>
    <edge id=":T12_2" function="internal">
        <lane id=":T12_2_0" index="0" speed="8.14" length="2.97" shape="128.40,-110.55 129.13,-113.43"/>
    </edge>
    <edge id=":T12_3" function="internal">
        <lane id=":T12_3_0" index="0" speed="3.65" length="1.44" shape="128.40,-110.55 129.20,-111.75"/>
    </edge>
    <edge id=":T12_18" function="internal">
        <lane id=":T12_18_0" index="0" speed="8.14" length="20.60" shape="129.13,-113.43 129.99,-116.78 134.01,-120.31 139.35,-120.66 144.89,-117.38"/>
    </edge>
    <edge id=":T12_19" function="internal">
        <lane id=":T12_19_0" index="0" speed="3.65" length="3.23" shape="129.20,-111.75 130.00,-112.15 130.80,-111.75 131.60,-110.55"/>
    </edge>
    <edge id=":T12_4" function="internal">
        <lane id=":T12_4_0" index="0" speed="5.47" length="9.74" shape="140.36,-112.85 137.93,-114.79 136.19,-115.06 135.15,-113.64 134.80,-110.55"/>
    </edge>
    <edge id=":T12_5" function="internal">
        <lane id=":T12_5_0" index="0" speed="13.89" length="24.66" shape="140.36,-112.85 134.43,-118.25 129.00,-122.11 124.05,-124.43 119.60,-125.20"/>
        <lane id=":T12_5_1" index="1" speed="13.89" length="27.16" shape="142.62,-115.11 136.20,-120.93 130.22,-125.08 124.69,-127.57 119.60,-128.40"/>
    </edge>
    <edge id=":T12_7" function="internal">
        <lane id=":T12_7_0" index="0" speed="13.89" length="6.65" shape="142.62,-115.11 138.17,-120.06"/>
    </edge>
    <edge id=":T12_8" function="internal">
        <lane id=":T12_8_0" index="0" speed="3.65" length="1.44" shape="142.62,-115.11 142.34,-116.53"/>
    </edge>
    <edge id=":T12_20" function="internal">
        <lane id=":T12_20_0" index="0" speed="13.89" length="22.98" shape="138.17,-120.06 136.40,-122.03 131.97,-128.55 129.33,-134.67 128.48,-140.39"/>
    </edge>
    <edge id=":T12_21" function="internal">
        <lane id=":T12_21_0" index="0" speed="3.65" length="3.23" shape="142.34,-116.53 142.62,-117.38 143.47,-117.66 144.89,-117.38"/>
    </edge>
    <edge id=":T12_9" function="internal">
        <lane id=":T12_9_0" index="0" speed="13.89" length="26.17" shape="131.68,-140.36 132.63,-137.11 135.53,-132.58 140.36,-126.75 147.15,-119.64"/>
    </edge>
    <edge id=":T12_10" function="internal">
        <lane id=":T12_10_0" index="0" speed="13.89" length="29.90" shape="131.68,-140.36 132.15,-135.00 133.22,-127.33 134.31,-118.72 134.80,-110.55"/>
        <lane id=":T12_10_1" index="1" speed="13.89" length="29.90" shape="131.68,-140.36 131.60,-110.55"/>
    </edge>
    <edge id=":T12_12" function="internal">
        <lane id=":T12_12_0" index="0" speed="9.28" length="6.12" shape="131.68,-140.36 130.89,-135.13 130.46,-134.42"/>
    </edge>
    <edge id=":T12_22" function="internal">
        <lane id=":T12_22_0" index="0" speed="9.28" length="13.23" shape="130.46,-134.42 128.61,-131.39 124.85,-129.15 119.60,-128.40"/>
    </edge>
    <edge id=":T12_13" function="internal">
        <lane id=":T12_13_0" index="0" speed="7.36" length="11.77" shape="119.60,-134.80 123.47,-135.15 126.24,-136.20 127.91,-137.94 128.48,-140.39"/>
    </edge>
    <edge id=":T12_14" function="internal">
        <lane id=":T12_14_0" index="0" speed="13.89" length="32.17" shape="119.60,-134.80 125.97,-133.85 132.68,-131.01 139.74,-126.27 147.15,-119.64"/>
        <lane id=":T12_14_1" index="1" speed="13.89" length="29.67" shape="119.60,-131.60 125.33,-130.71 131.45,-128.04 137.97,-123.60 144.89,-117.38"/>
    </edge>
    <edge id=":T12_16" function="internal">
        <lane id=":T12_16_0" index="0" speed="10.87" length="5.53" shape="119.60,-131.60 124.85,-130.28 124.93,-130.20"/>
    </edge>
    <edge id=":T12_17" function="internal">
        <lane id=":T12_17_0" index="0" speed="3.65" length="1.44" shape="119.60,-131.60 120.80,-130.80"/>
    </edge>
    <edge id=":T12_23" function="internal">
        <lane id=":T12_23_0" index="0" speed="10.87" length="21.52" shape="124.93,-130.20 128.60,-126.34 130.85,-119.76 131.60,-110.55"/>
    </edge>
    <edge id=":T12_24" function="internal">
        <lane id=":T12_24_0" index="0" speed="3.65" length="3.23" shape="120.80,-130.80 121.20,-130.00 120.80,-129.20 119.60,-128.40"/>
    </edge>
    <edge id=":T2_0" function="internal">
        <lane id=":T2_0_0" index="0" speed="13.89" length="26.32" shape="147.15,139.64 141.73,145.17 136.71,150.81 133.00,156.06 131.55,160.42"/>
    </edge>
    <edge id=":T2_1" function="internal">
        <lane id=":T2_1_0" index="0" speed="13.89" length="29.67" shape="144.89,137.38 137.97,143.60 131.45,148.04 125.33,150.71 119.60,151.60"/>
    </edge>
    <edge id=":T2_2" function="internal">
        <lane id=":T2_2_0" index="0" speed="8.14" length="3.59" shape="144.89,137.38 141.79,139.21"/>
    </edge>
    <edge id=":T2_3" function="internal">
        <lane id=":T2_3_0" index="0" speed="3.65" length="1.44" shape="144.89,137.38 143.47,137.66"/>
    </edge>
    <edge id=":T2_17" function="internal">
        <lane id=":T2_17_0" index="0" speed="8.14" length="19.97" shape="141.79,139.21 139.35,140.66 134.01,140.31 129.99,136.78 128.40,130.55"/>
    </edge>
    <edge id=":T2_18" function="internal">
        <lane id=":T2_18_0" index="0" speed="3.65" length="3.23" shape="143.47,137.66 142.62,137.38 142.34,136.53 142.62,135.11"/>
    </edge>
    <edge id=":T2_4" function="internal">
        <lane id=":T2_4_0" index="0" speed="5.47" length="9.74" shape="134.80,130.55 135.15,133.64 136.19,135.06 137.93,134.79 140.36,132.85"/>
    </edge>
    <edge id=":T2_5" function="internal">
        <lane id=":T2_5_0" index="0" speed="13.89" length="30.07" shape="134.80,130.55 134.30,138.73 133.18,147.36 132.07,155.05 131.55,160.42"/>
    </edge>
    <edge id=":T2_6" function="internal">
        <lane id=":T2_6_0" index="0" speed="10.87" length="8.84" shape="131.60,130.55 130.88,139.36"/>
    </edge>
    <edge id=":T2_7" function="internal">
        <lane id=":T2_7_0" index="0" speed="3.65" length="1.44" shape="131.60,130.55 130.80,131.75"/>
    </edge>
    <edge id=":T2_19" function="internal">
        <lane id=":T2_19_0" index="0" speed="10.87" length="18.21" shape="130.88,139.36 130.85,139.76 128.60,146.34 124.85,150.28 119.60,151.60"/>
    </edge>
    <edge id=":T2_20" function="internal">
        <lane id=":T2_20_0" index="0" speed="3.65" length="3.23" shape="130.80,131.75 130.00,132.15 129.20,131.75 128.40,130.55"/>
    </edge>
    <edge id=":T2_8" function="internal">
        <lane id=":T2_8_0" index="0" speed="8.71" length="16.99" shape="119.60,145.20 122.05,144.28 123.80,141.54 124.85,136.96 125.20,130.55"/>
    </edge>
    <edge id=":T2_9" function="internal">
        <lane id=":T2_9_0" index="0" speed="13.89" length="24.66" shape="119.60,145.20 124.05,144.43 129.00,142.11 134.43,138.25 140.36,132.85"/>
        <lane id=":T2_9_1" index="1" speed="13.89" length="27.16" shape="119.60,148.40 124.69,147.57 130.22,145.08 136.20,140.93 142.62,135.11"/>
    </edge>
    <edge id=":T2_11" function="internal">
        <lane id=":T2_11_0" index="0" speed="9.24" length="2.40" shape="119.60,148.40 121.98,148.74"/>
    </edge>
    <edge id=":T2_12" function="internal">
        <lane id=":T2_12_0" index="0" speed="3.65" length="1.29" shape="119.60,148.40 120.68,149.12"/>
    </edge>
    <edge id=":T2_21" function="internal">
        <lane id=":T2_21_0" index="0" speed="9.24" length="16.95" shape="121.98,148.74 124.85,149.15 128.59,151.41 130.83,155.16 131.55,160.42"/>
    </edge>
    <edge id=":T2_22" function="internal">
        <lane id=":T2_22_0" index="0" speed="3.65" length="3.38" shape="120.68,149.12 120.80,149.20 121.20,150.00 120.80,150.80 119.60,151.60"/>
    </edge>
    <edge id=":T2_13" function="internal">
        <lane id=":T2_13_0" index="0" speed="7.31" length="11.70" shape="128.35,160.41 127.81,157.95 126.18,156.20 123.44,155.15 119.60,154.80"/>
    </edge>
    <edge id=":T2_14" function="internal">
        <lane id=":T2_14_0" index="0" speed="16.95" length="29.95" shape="128.35,160.41 127.87,155.04 126.78,147.35 125.70,138.73 125.20,130.55"/>
        <lane id=":T2_14_1" index="1" speed="16.95" length="29.95" shape="128.35,160.41 128.40,130.55"/>
    </edge>
    <edge id=":T2_16" function="internal">
        <lane id=":T2_16_0" index="0" speed="16.95" length="29.40" shape="128.35,160.41 129.60,155.34 132.84,148.54 137.41,141.35 142.62,135.11"/>
    </edge>
    <edge id=":T3_0" function="internal">
        <lane id=":T3_0_0" index="0" speed="13.89" length="26.31" shape="-59.64,67.15 -65.17,61.73 -70.81,56.71 -76.06,53.01 -80.42,51.56"/>
    </edge>
    <edge id=":T3_1" function="internal">
        <lane id=":T3_1_0" index="0" speed="13.89" length="29.67" shape="-57.38,64.89 -63.60,57.97 -68.04,51.45 -70.71,45.33 -71.60,39.60"/>
    </edge>
    <edge id=":T3_2" function="internal">
        <lane id=":T3_2_0" index="0" speed="8.14" length="3.59" shape="-57.38,64.89 -59.21,61.79"/>
    </edge>
    <edge id=":T3_3" function="internal">
        <lane id=":T3_3_0" index="0" speed="3.65" length="1.44" shape="-57.38,64.89 -57.66,63.47"/>
    </edge>
    <edge id=":T3_17" function="internal">
        <lane id=":T3_17_0" index="0" speed="8.14" length="19.97" shape="-59.21,61.79 -60.66,59.35 -60.31,54.01 -56.78,49.99 -50.55,48.40"/>
    </edge>
    <edge id=":T3_18" function="internal">
        <lane id=":T3_18_0" index="0" speed="3.65" length="3.23" shape="-57.66,63.47 -57.38,62.62 -56.53,62.34 -55.11,62.62"/>
    </edge>
    <edge id=":T3_4" function="internal">
        <lane id=":T3_4_0" index="0" speed="5.47" length="9.74" shape="-50.55,54.80 -53.64,55.15 -55.06,56.19 -54.79,57.93 -52.85,60.36"/>
    </edge>
    <edge id=":T3_5" function="internal">
        <lane id=":T3_5_0" index="0" speed="13.89" length="30.06" shape="-50.55,54.80 -58.73,54.30 -67.36,53.19 -75.05,52.07 -80.42,51.56"/>
    </edge>
    <edge id=":T3_6" function="internal">
        <lane id=":T3_6_0" index="0" speed="10.87" length="8.81" shape="-50.55,51.60 -59.33,50.88"/>
    </edge>
    <edge id=":T3_7" function="internal">
        <lane id=":T3_7_0" index="0" speed="3.65" length="1.44" shape="-50.55,51.60 -51.75,50.80"/>
    </edge>
    <edge id=":T3_19" function="internal">
        <lane id=":T3_19_0" index="0" speed="10.87" length="18.24" shape="-59.33,50.88 -59.76,50.85 -66.34,48.60 -70.28,44.85 -71.60,39.60"/>
    </edge>
    <edge id=":T3_20" function="internal">
        <lane id=":T3_20_0" index="0" speed="3.65" length="3.23" shape="-51.75,50.80 -52.15,50.00 -51.75,49.20 -50.55,48.40"/>
    </edge>
    <edge id=":T3_8" function="internal">
        <lane id=":T3_8_0" index="0" speed="8.71" length="16.99" shape="-65.20,39.60 -64.28,42.05 -61.54,43.80 -56.96,44.85 -50.55,45.20"/>
    </edge>
    <edge id=":T3_9" function="internal">
        <lane id=":T3_9_0" index="0" speed="13.89" length="24.66" shape="-65.20,39.60 -64.43,44.05 -62.11,49.00 -58.25,54.43 -52.85,60.36"/>
        <lane id=":T3_9_1" index="1" speed="13.89" length="27.16" shape="-68.40,39.60 -67.57,44.69 -65.08,50.22 -60.93,56.20 -55.11,62.62"/>
    </edge>
    <edge id=":T3_11" function="internal">
        <lane id=":T3_11_0" index="0" speed="9.24" length="2.40" shape="-68.40,39.60 -68.74,41.98"/>
    </edge>
    <edge id=":T3_12" function="internal">
        <lane id=":T3_12_0" index="0" speed="3.65" length="1.29" shape="-68.40,39.60 -69.12,40.68"/>
    </edge>
    <edge id=":T3_21" function="internal">
        <lane id=":T3_21_0" index="0" speed="9.24" length="16.95" shape="-68.74,41.98 -69.15,44.85 -71.40,48.59 -75.16,50.83 -80.42,51.56"/>
    </edge>
    <edge id=":T3_22" function="internal">
        <lane id=":T3_22_0" index="0" speed="3.65" length="3.38" shape="-69.12,40.68 -69.20,40.80 -70.00,41.20 -70.80,40.80 -71.60,39.60"/>
    </edge>
    <edge id=":T3_13" function="internal">
        <lane id=":T3_13_0" index="0" speed="7.31" length="11.70" shape="-80.41,48.36 -77.95,47.82 -76.20,46.18 -75.15,43.44 -74.80,39.60"/>
    </edge>
    <edge id=":T3_14" function="internal">
        <lane id=":T3_14_0" index="0" speed="13.89" length="29.95" shape="-80.41,48.36 -75.04,47.87 -67.35,46.79 -58.73,45.70 -50.55,45.20"/>
        <lane id=":T3_14_1" index="1" speed="13.89" length="29.95" shape="-80.41,48.36 -50.55,48.40"/>
    </edge>
    <edge id=":T3_16" function="internal">
        <lane id=":T3_16_0" index="0" speed="13.89" length="4.82" shape="-80.41,48.36 -75.73,49.51"/>
    </edge>
    <edge id=":T3_23" function="internal">
        <lane id=":T3_23_0" index="0" speed="13.89" length="24.58" shape="-75.73,49.51 -75.34,49.60 -68.54,52.85 -61.35,57.41 -55.11,62.62"/>
    </edge>
    <edge id=":T4_0" function="internal">
        <lane id=":T4_0_0" index="0" speed="5.46" length="9.85" shape="25.20,65.51 24.86,62.36 23.82,60.94 22.10,61.27 19.70,63.33"/>
    </edge>
    <edge id=":T4_1" function="internal">
        <lane id=":T4_1_0" index="0" speed="8.56" length="16.37" shape="25.20,65.51 24.60,60.82 22.80,57.48 19.81,55.47 15.62,54.80"/>
    </edge>
    <edge id=":T4_2" function="internal">
        <lane id=":T4_2_0" index="0" speed="13.89" length="25.91" shape="25.20,65.51 25.20,39.60"/>
        <lane id=":T4_2_1" index="1" speed="13.89" length="25.91" shape="28.40,65.51 28.40,39.60"/>
    </edge>
    <edge id=":T4_4" function="internal">
        <lane id=":T4_4_0" index="0" speed="10.18" length="23.62" shape="28.40,65.51 29.15,58.02 31.40,52.68 35.15,49.47 40.40,48.40"/>
    </edge>
    <edge id=":T4_5" function="internal">
        <lane id=":T4_5_0" index="0" speed="3.65" length="2.34" shape="28.40,65.51 29.20,64.31 30.00,63.91"/>
    </edge>
    <edge id=":T4_28" function="internal">
        <lane id=":T4_28_0" index="0" speed="3.65" length="2.34" shape="30.00,63.91 30.80,64.31 31.60,65.51"/>
    </edge>
    <edge id=":T4_6" function="internal">
        <lane id=":T4_6_0" index="0" speed="7.79" length="13.41" shape="40.40,54.80 37.95,55.47 36.20,57.48 35.15,60.82 34.80,65.51"/>
    </edge>
    <edge id=":T4_7" function="internal">
        <lane id=":T4_7_0" index="0" speed="9.45" length="23.03" shape="40.40,54.80 34.34,55.33 28.87,56.93 23.99,59.60 19.70,63.33"/>
    </edge>
    <edge id=":T4_8" function="internal">
        <lane id=":T4_8_0" index="0" speed="13.89" length="24.78" shape="40.40,54.80 15.62,54.80"/>
        <lane id=":T4_8_1" index="1" speed="13.89" length="24.78" shape="40.40,51.60 15.62,51.60"/>
    </edge>
    <edge id=":T4_10" function="internal">
        <lane id=":T4_10_0" index="0" speed="9.26" length="5.01" shape="40.40,51.60 35.44,50.89"/>
    </edge>
    <edge id=":T4_11" function="internal">
        <lane id=":T4_11_0" index="0" speed="3.65" length="1.44" shape="40.40,51.60 39.20,50.80"/>
    </edge>
    <edge id=":T4_29" function="internal">
        <lane id=":T4_29_0" index="0" speed="9.26" length="14.34" shape="35.44,50.89 35.15,50.85 31.40,48.60 29.15,44.85 28.40,39.60"/>
    </edge>
    <edge id=":T4_30" function="internal">
        <lane id=":T4_30_0" index="0" speed="3.65" length="3.23" shape="39.20,50.80 38.80,50.00 39.20,49.20 40.40,48.40"/>
    </edge>
    <edge id=":T4_12" function="internal">