<roadnet v2simfmtver="1.0">
  <location netOffset="-648678.39,-3534503.27" convBoundary="0.00,0.00,36142.74,29171.70" origBoundary="118.576140,31.933700,118.959540,32.196500" projParameter="+proj=utm +zone=50 +ellps=WGS84 +datum=WGS84 +units=m +no_defs"/>
  <node id="C1" x="10319" y="19412"/>
  <node id="C2" x="28929" y="18680"/>
  <node id="C3" x="3959" y="16684"/>
  <node id="C4" x="17563" y="18756"/>
  <node id="C5" x="16017" y="15062"/>
  <node id="C6" x="18498" y="12601"/>
  <node id="C7" x="22255" y="16653"/>
  <node id="C8" x="12892" y="7015"/>
  <node id="C9" x="20360" y="4956"/>
  <node id="C10" x="30799" y="15213"/>
  <node id="N1" x="0" y="21035"/>
  <node id="N2" x="3962" y="12068"/>
  <node id="N3" x="7041" y="15547"/>
  <node id="N4" x="13624" y="23983"/>
  <node id="N5" x="13602" y="26043"/>
  <node id="N6" x="23382" y="21142"/>
  <node id="N7" x="17670" y="15884"/>
  <node id="N8" x="16084" y="10338"/>
  <node id="N9" x="22141" y="12521"/>
  <node id="N10" x="18453" y="9449"/>
  <node id="N11" x="21471" y="8638"/>
  <node id="N12" x="22874" y="8909"/>
  <node id="N13" x="26035" y="8054"/>
  <node id="N14" x="28695" y="10713"/>
  <node id="N15" x="6704" y="26334"/>
  <node id="N16" x="514" y="11293"/>
  <node id="N17" x="14048" y="11023"/>
  <node id="N18" x="15407" y="5151"/>
  <node id="N19" x="8438" y="3536"/>
  <node id="N20" x="10459" y="1522"/>
  <node id="N21" x="21618" y="0"/>
  <node id="N22" x="30425" y="2530"/>
  <node id="N23" x="36086" y="15663"/>
  <node id="N24" x="27076" y="22159"/>
  <node id="N25" x="31650" y="21295"/>
  <node id="N26" x="23247" y="29171"/>
  <node id="N27" x="36142" y="23234"/>
  <edge id="C3_N1" from="C3" to="N1" length="5818.57" lanes="4" speed="40.0" world_id="3"/>
  <edge id="C3_N2" from="C3" to="N2" length="4556.1" lanes="4" speed="40.0" world_id="3"/>
  <edge id="C3_N3" from="C3" to="N3" length="3239.96" lanes="4" speed="40.0" world_id="3"/>
  <edge id="N4_C4" from="N4" to="C4" length="6492.97" lanes="4" speed="40.0" world_id="2"/>
  <edge id="N4_N5" from="N4" to="N5" length="2036.05" lanes="4" speed="40.0" world_id="2"/>
  <edge id="N4_C1" from="N4" to="C1" length="5594.74" lanes="4" speed="40.0" world_id="2"/>
  <edge id="C4_N4" from="C4" to="N4" length="6492.97" lanes="4" speed="40.0" world_id="2"/>
  <edge id="C4_C5" from="C4" to="C5" length="3943.99" lanes="4" speed="40.0" world_id="2"/>
  <edge id="C4_C7" from="C4" to="C7" length="5062.58" lanes="4" speed="40.0" world_id="2"/>
  <edge id="C4_N6" from="C4" to="N6" length="6226.59" lanes="4" speed="40.0" world_id="2"/>
  <edge id="C5_C4" from="C5" to="C4" length="3943.99" lanes="4" speed="40.0" world_id="2"/>
  <edge id="C5_N7" from="C5" to="N7" length="1788.05" lanes="4" speed="40.0" world_id="2"/>
  <edge id="C5_N8" from="C5" to="N8" length="4677.88" lanes="4" speed="40.0" world_id="0"/>
  <edge id="C5_C1" from="C5" to="C1" length="7126.9" lanes="4" speed="40.0" world_id="2"/>
  <edge id="N7_C5" from="N7" to="C5" length="1788.05" lanes="4" speed="40.0" world_id="2"/>
  <edge id="N7_C6" from="N7" to="C6" length="3349.06" lanes="4" speed="40.0" world_id="2"/>
  <edge id="N7_C7" from="N7" to="C7" length="4585.3" lanes="4" speed="40.0" world_id="2"/>
  <edge id="C6_N7" from="C6" to="N7" length="3349.06" lanes="4" speed="40.0" world_id="2"/>
  <edge id="C6_N9" from="C6" to="N9" length="3607.63" lanes="4" speed="40.0" world_id="0"/>
  <edge id="C6_N10" from="C6" to="N10" length="3108.97" lanes="4" speed="40.0" world_id="0"/>
  <edge id="N9_C6" from="N9" to="C6" length="3607.63" lanes="4" speed="40.0" world_id="0"/>
  <edge id="N9_C7" from="N9" to="C7" length="4083.45" lanes="4" speed="40.0" world_id="1"/>
  <edge id="N9_N11" from="N9" to="N11" length="3898.5" lanes="4" speed="40.0" world_id="0"/>
  <edge id="N9_C10" from="N9" to="C10" length="9012.66" lanes="4" speed="40.0" world_id="1"/>
  <edge id="C7_C4" from="C7" to="C4" length="5062.58" lanes="4" speed="40.0" world_id="2"/>
  <edge id="C7_N7" from="C7" to="N7" length="4585.3" lanes="4" speed="40.0" world_id="2"/>
  <edge id="C7_N9" from="C7" to="N9" length="4083.45" lanes="4" speed="40.0" world_id="1"/>
  <edge id="C7_C2" from="C7" to="C2" length="6910.15" lanes="4" speed="40.0" world_id="1"/>
  <edge id="C7_N6" from="C7" to="N6" length="4572.72" lanes="4" speed="40.0" world_id="2"/>
  <edge id="N12_N11" from="N12" to="N11" length="1398.84" lanes="4" speed="40.0" world_id="0"/>
  <edge id="N12_N13" from="N12" to="N13" length="3190.63" lanes="4" speed="40.0" world_id="0"/>
  <edge id="N12_N14" from="N12" to="N14" length="5990.61" lanes="4" speed="40.0" world_id="1"/>
  <edge id="N11_N9" from="N11" to="N9" length="3898.5" lanes="4" speed="40.0" world_id="0"/>
  <edge id="N11_N12" from="N11" to="N12" length="1398.84" lanes="4" speed="40.0" world_id="0"/>
  <edge id="N11_N10" from="N11" to="N10" length="3076.72" lanes="4" speed="40.0" world_id="0"/>
  <edge id="N11_C9" from="N11" to="C9" length="3790.07" lanes="4" speed="40.0" world_id="0"/>
  <edge id="N1_C3" from="N1" to="C3" length="5818.57" lanes="4" speed="40.0" world_id="3"/>
  <edge id="N1_N15" from="N1" to="N15" length="8508.54" lanes="4" speed="40.0" world_id="3"/>
  <edge id="N1_N16" from="N1" to="N16" length="9696.13" lanes="4" speed="40.0" world_id="3"/>
  <edge id="N10_C6" from="N10" to="C6" length="3108.97" lanes="4" speed="40.0" world_id="0"/>
  <edge id="N10_N11" from="N10" to="N11" length="3076.72" lanes="4" speed="40.0" world_id="0"/>
  <edge id="N10_N8" from="N10" to="N8" length="2488.92" lanes="4" speed="40.0" world_id="0"/>
  <edge id="N10_C9" from="N10" to="C9" length="4811.24" lanes="4" speed="40.0" world_id="0"/>
  <edge id="N8_C5" from="N8" to="C5" length="4677.88" lanes="4" speed="40.0" world_id="0"/>
  <edge id="N8_N10" from="N8" to="N10" length="2488.92" lanes="4" speed="40.0" world_id="0"/>
  <edge id="N8_N17" from="N8" to="N17" length="2108.08" lanes="4" speed="40.0" world_id="0"/>
  <edge id="N8_N18" from="N8" to="N18" length="5185.53" lanes="4" speed="40.0" world_id="0"/>
  <edge id="N17_N8" from="N17" to="N8" length="2108.08" lanes="4" speed="40.0" world_id="0"/>
  <edge id="N17_C8" from="N17" to="C8" length="4134.09" lanes="4" speed="40.0" world_id="0"/>
  <edge id="N17_N3" from="N17" to="N3" length="8308.45" lanes="4" speed="40.0" world_id="3"/>
  <edge id="C8_N17" from="C8" to="N17" length="4134.09" lanes="4" speed="40.0" world_id="0"/>
  <edge id="C8_N18" from="C8" to="N18" length="3077.91" lanes="4" speed="40.0" world_id="0"/>
  <edge id="C8_N19" from="C8" to="N19" length="5598.94" lanes="4" speed="40.0" world_id="0"/>
  <edge id="C8_N2" from="C8" to="N2" length="10217.59" lanes="4" speed="40.0" world_id="3"/>
  <edge id="N18_N8" from="N18" to="N8" length="5185.53" lanes="4" speed="40.0" world_id="0"/>
  <edge id="N18_C8" from="N18" to="C8" length="3077.91" lanes="4" speed="40.0" world_id="0"/>
  <edge id="N18_C9" from="N18" to="C9" length="4902.73" lanes="4" speed="40.0" world_id="0"/>
  <edge id="N18_N20" from="N18" to="N20" length="6078.49" lanes="4" speed="40.0" world_id="0"/>
  <edge id="C9_N11" from="C9" to="N11" length="3790.07" lanes="4" speed="40.0" world_id="0"/>
  <edge id="C9_N10" from="C9" to="N10" length="4811.24" lanes="4" speed="40.0" world_id="0"/>
  <edge id="C9_N18" from="C9" to="N18" length="4902.73" lanes="4" speed="40.0" world_id="0"/>
  <edge id="C9_N21" from="C9" to="N21" length="5065.68" lanes="4" speed="40.0" world_id="0"/>
  <edge id="C9_N13" from="C9" to="N13" length="6394.94" lanes="4" speed="40.0" world_id="0"/>
  <edge id="N21_C9" from="N21" to="C9" length="5065.68" lanes="4" speed="40.0" world_id="0"/>
  <edge id="N21_N20" from="N21" to="N20" length="11203.62" lanes="4" speed="40.0" world_id="0"/>
  <edge id="N21_N22" from="N21" to="N22" length="9122.76" lanes="4" speed="40.0" world_id="0"/>
  <edge id="N20_N18" from="N20" to="N18" length="6078.49" lanes="4" speed="40.0" world_id="0"/>
  <edge id="N20_N21" from="N20" to="N21" length="11203.62" lanes="4" speed="40.0" world_id="0"/>
  <edge id="N20_N19" from="N20" to="N19" length="2819.52" lanes="4" speed="40.0" world_id="0"/>
  <edge id="N19_C8" from="N19" to="C8" length="5598.94" lanes="4" speed="40.0" world_id="0"/>
  <edge id="N19_N20" from="N19" to="N20" length="2819.52" lanes="4" speed="40.0" world_id="0"/>
  <edge id="N19_N16" from="N19" to="N16" length="11046.4" lanes="4" speed="40.0" world_id="3"/>
  <edge id="N13_N12" from="N13" to="N12" length="3190.63" lanes="4" speed="40.0" world_id="0"/>
  <edge id="N13_C9" from="N13" to="C9" length="6394.94" lanes="4" speed="40.0" world_id="0"/>
  <edge id="N13_N22" from="N13" to="N22" length="7015.54" lanes="4" speed="40.0" world_id="0"/>
  <edge id="N13_N14" from="N13" to="N14" length="3689.88" lanes="4" speed="40.0" world_id="1"/>
  <edge id="N15_N1" from="N15" to="N1" length="8508.54" lanes="4" speed="40.0" world_id="3"/>
  <edge id="N15_N5" from="N15" to="N5" length="6862.38" lanes="4" speed="40.0" world_id="2"/>
  <edge id="N15_C1" from="N15" to="C1" length="7754.33" lanes="4" speed="40.0" world_id="3"/>
  <edge id="N22_N21" from="N22" to="N21" length="9122.76" lanes="4" speed="40.0" world_id="0"/>
  <edge id="N22_N13" from="N22" to="N13" length="7015.54" lanes="4" speed="40.0" world_id="0"/>
  <edge id="N22_N23" from="N22" to="N23" length="14250.93" lanes="4" speed="40.0" world_id="1"/>
  <edge id="C10_N9" from="C10" to="N9" length="9012.66" lanes="4" speed="40.0" world_id="1"/>
  <edge id="C10_C2" from="C10" to="C2" length="3889.58" lanes="4" speed="40.0" world_id="1"/>
  <edge id="C10_N14" from="C10" to="N14" length="4924.64" lanes="4" speed="40.0" world_id="1"/>
  <edge id="C10_N23" from="C10" to="N23" length="5248.07" lanes="4" speed="40.0" world_id="1"/>
  <edge id="C2_C7" from="C2" to="C7" length="6910.15" lanes="4" speed="40.0" world_id="1"/>
  <edge id="C2_C10" from="C2" to="C10" length="3889.58" lanes="4" speed="40.0" world_id="1"/>
  <edge id="C2_N24" from="C2" to="N24" length="3890.47" lanes="4" speed="40.0" world_id="1"/>
  <edge id="C2_N25" from="C2" to="N25" length="3724.05" lanes="4" speed="40.0" world_id="1"/>
  <edge id="N24_C2" from="N24" to="C2" length="3890.47" lanes="4" speed="40.0" world_id="1"/>
  <edge id="N24_N25" from="N24" to="N25" length="4595.69" lanes="4" speed="40.0" world_id="1"/>
  <edge id="N24_N6" from="N24" to="N6" length="3790.11" lanes="4" speed="40.0" world_id="1"/>
  <edge id="N24_N26" from="N24" to="N26" length="7913.14" lanes="4" speed="40.0" world_id="2"/>
  <edge id="N25_C2" from="N25" to="C2" length="3724.05" lanes="4" speed="40.0" world_id="1"/>
  <edge id="N25_N24" from="N25" to="N24" length="4595.69" lanes="4" speed="40.0" world_id="1"/>
  <edge id="N25_N27" from="N25" to="N27" length="4865.1" lanes="4" speed="40.0" world_id="1"/>
  <edge id="N6_C4" from="N6" to="C4" length="6226.59" lanes="4" speed="40.0" world_id="2"/>
  <edge id="N6_C7" from="N6" to="C7" length="4572.72" lanes="4" speed="40.0" world_id="2"/>
  <edge id="N6_N24" from="N6" to="N24" length="3790.11" lanes="4" speed="40.0" world_id="1"/>
  <edge id="N6_N26" from="N6" to="N26" length="7953.85" lanes="4" speed="40.0" world_id="2"/>
  <edge id="N27_N25" from="N27" to="N25" length="4865.1" lanes="4" speed="40.0" world_id="1"/>
  <edge id="N27_N23" from="N27" to="N23" length="7535.5" lanes="4" speed="40.0" world_id="1"/>
  <edge id="N14_N12" from="N14" to="N12" length="5990.61" lanes="4" speed="40.0" world_id="1"/>
  <edge id="N14_N13" from="N14" to="N13" length="3689.88" lanes="4" speed="40.0" world_id="1"/>
  <edge id="N14_C10" from="N14" to="C10" length="4924.64" lanes="4" speed="40.0" world_id="1"/>
  <edge id="N5_N4" from="N5" to="N4" length="2036.05" lanes="4" speed="40.0" world_id="2"/>
  <edge id="N5_N15" from="N5" to="N15" length="6862.38" lanes="4" speed="40.0" world_id="2"/>
  <edge id="N5_N26" from="N5" to="N26" length="10104.68" lanes="4" speed="40.0" world_id="2"/>
  <edge id="N26_N5" from="N26" to="N5" length="10104.68" lanes="4" speed="40.0" world_id="2"/>
  <edge id="N26_N24" from="N26" to="N24" length="7913.14" lanes="4" speed="40.0" world_id="2"/>
  <edge id="N26_N6" from="N26" to="N6" length="7953.85" lanes="4" speed="40.0" world_id="2"/>
  <edge id="N16_N1" from="N16" to="N1" length="9696.13" lanes="4" speed="40.0" world_id="3"/>
  <edge id="N16_N19" from="N16" to="N19" length="11046.4" lanes="4" speed="40.0" world_id="3"/>
  <edge id="N16_N2" from="N16" to="N2" length="3492.46" lanes="4" speed="40.0" world_id="3"/>
  <edge id="N2_C3" from="N2" to="C3" length="4556.1" lanes="4" speed="40.0" world_id="3"/>
  <edge id="N2_C8" from="N2" to="C8" length="10217.59" lanes="4" speed="40.0" world_id="3"/>
  <edge id="N2_N16" from="N2" to="N16" length="3492.46" lanes="4" speed="40.0" world_id="3"/>
  <edge id="N2_N3" from="N2" to="N3" length="4584.88" lanes="4" speed="40.0" world_id="3"/>
  <edge id="N3_C3" from="N3" to="C3" length="3239.96" lanes="4" speed="40.0" world_id="3"/>
  <edge id="N3_N17" from="N3" to="N17" length="8308.45" lanes="4" speed="40.0" world_id="3"/>
  <edge id="N3_N2" from="N3" to="N2" length="4584.88" lanes="4" speed="40.0" world_id="3"/>
  <edge id="N3_C1" from="N3" to="C1" length="5021.71" lanes="4" speed="40.0" world_id="3"/>
  <edge id="C1_N4" from="C1" to="N4" length="5594.74" lanes="4" speed="40.0" world_id="2"/>
  <edge id="C1_C5" from="C1" to="C5" length="7126.9" lanes="4" speed="40.0" world_id="2"/>
  <edge id="C1_N15" from="C1" to="N15" length="7754.33" lanes="4" speed="40.0" world_id="3"/>
  <edge id="C1_N3" from="C1" to="N3" length="5021.71" lanes="4" speed="40.0" world_id="3"/>
  <edge id="N23_N22" from="N23" to="N22" length="14250.93" lanes="4" speed="40.0" world_id="1"/>
  <edge id="N23_C10" from="N23" to="C10" length="5248.07" lanes="4" speed="40.0" world_id="1"/>
  <edge id="N23_N27" from="N23" to="N27" length="7535.5" lanes="4" speed="40.0" world_id="1"/>
</roadnet>
