<roadnet v2simfmtver="1.0">
  <location netOffset="-660823.17,-3542266.43" convBoundary="130.76,34.41,11971.18,11724.67" origBoundary="118.70451,32.005029,118.829375,32.109275" projParameter="+proj=utm +zone=50 +ellps=WGS84 +datum=WGS84 +units=m +no_defs"/>  <node id="N1" x="7180" y="3399"/>
  <node id="N2" x="7154" y="3399"/>
  <node id="N3" x="7264" y="3387"/>
  <node id="N4" x="7406" y="3354"/>
  <node id="N5" x="8314" y="3006"/>
  <node id="N6" x="8173" y="3045"/>
  <node id="N7" x="8434" y="2970"/>
  <node id="N8" x="8521" y="2952"/>
  <node id="N9" x="7276" y="3821"/>
  <node id="N10" x="7227" y="3628"/>
  <node id="N11" x="7310" y="3960"/>
  <node id="N12" x="6719" y="3480"/>
  <node id="N13" x="6900" y="3416"/>
  <node id="N14" x="6872" y="3336"/>
  <node id="N15" x="7013" y="3303"/>
  <node id="N16" x="7065" y="3507"/>
  <node id="N17" x="7071" y="3658"/>
  <node id="N18" x="7566" y="3207"/>
  <node id="N19" x="7831" y="3132"/>
  <node id="N20" x="7394" y="3234"/>
  <node id="N21" x="7517" y="3333"/>
  <node id="N22" x="7635" y="3299"/>
  <node id="N23" x="7704" y="3455"/>
  <node id="N24" x="7786" y="3679"/>
  <node id="N25" x="7550" y="3484"/>
  <node id="N26" x="5933" y="4348"/>
  <node id="N27" x="5661" y="4371"/>
  <node id="N28" x="6061" y="4346"/>
  <node id="N29" x="6365" y="4329"/>
  <node id="N30" x="5609" y="4196"/>
  <node id="N31" x="5557" y="4171"/>
  <node id="N32" x="6272" y="3969"/>
  <node id="N33" x="5912" y="4195"/>
  <node id="N34" x="6882" y="4568"/>
  <node id="N35" x="6930" y="4555"/>
  <node id="N36" x="6788" y="4592"/>
  <node id="N37" x="6680" y="4620"/>
  <node id="N38" x="7017" y="10780"/>
  <node id="N39" x="7185" y="10793"/>
  <node id="N40" x="9692" y="4925"/>
  <node id="N41" x="9708" y="5129"/>
  <node id="N42" x="6998" y="4241"/>
  <node id="N43" x="6830" y="4311"/>
  <node id="N44" x="7050" y="4219"/>
  <node id="N45" x="6986" y="4070"/>
  <node id="N46" x="5203" y="4685"/>
  <node id="N47" x="5011" y="4497"/>
  <node id="N48" x="10426" y="7453"/>
  <node id="N49" x="10325" y="7728"/>
  <node id="N50" x="11131" y="9266"/>
  <node id="N51" x="11061" y="9224"/>
  <node id="N52" x="11179" y="9288"/>
  <node id="N53" x="11378" y="9352"/>
  <node id="N54" x="10016" y="8025"/>
  <node id="N55" x="10075" y="7796"/>
  <node id="N56" x="10376" y="7741"/>
  <node id="N57" x="10257" y="8090"/>
  <node id="N58" x="10515" y="7540"/>
  <node id="N59" x="10652" y="5032"/>
  <node id="N60" x="10406" y="5067"/>
  <node id="N61" x="10699" y="4848"/>
  <node id="N62" x="10609" y="5262"/>
  <node id="N63" x="10440" y="5280"/>
  <node id="N64" x="10911" y="5559"/>
  <node id="N65" x="10633" y="5270"/>
  <node id="N66" x="10628" y="5243"/>
  <node id="N67" x="10473" y="5641"/>
  <node id="N68" x="11081" y="5510"/>
  <node id="N69" x="9320" y="1684"/>
  <node id="N70" x="9317" y="2202"/>
  <node id="N71" x="10753" y="946"/>
  <node id="N72" x="10916" y="879"/>
  <node id="N73" x="10591" y="1009"/>
  <node id="N74" x="10306" y="1136"/>
  <node id="N75" x="10192" y="1180"/>
  <node id="N76" x="9923" y="1357"/>
  <node id="N77" x="2559" y="4877"/>
  <node id="N78" x="2436" y="4474"/>
  <node id="N79" x="3859" y="3104"/>
  <node id="N80" x="3990" y="3071"/>
  <node id="N81" x="3740" y="3133"/>
  <node id="N82" x="3558" y="3180"/>
  <node id="N83" x="3341" y="3226"/>
  <node id="N84" x="2939" y="3223"/>
  <node id="N85" x="3986" y="2235"/>
  <node id="N86" x="3913" y="2438"/>
  <node id="N87" x="3324" y="4547"/>
  <node id="N88" x="2951" y="4566"/>
  <node id="N89" x="3691" y="4505"/>
  <node id="N90" x="4194" y="2447"/>
  <node id="N91" x="4127" y="2446"/>
  <node id="N92" x="4317" y="2451"/>
  <node id="N93" x="2881" y="2528"/>
  <node id="N94" x="2380" y="2622"/>
  <node id="N95" x="4107" y="2238"/>
  <node id="N96" x="4129" y="2238"/>
  <node id="N97" x="4177" y="2239"/>
  <node id="N98" x="4190" y="2238"/>
  <node id="N99" x="4254" y="2219"/>
  <node id="N100" x="4267" y="2213"/>
  <node id="N101" x="4500" y="4440"/>
  <node id="N102" x="4523" y="4242"/>
  <node id="N103" x="3783" y="2471"/>
  <node id="N104" x="4835" y="4205"/>
  <node id="N105" x="4939" y="4107"/>
  <node id="N106" x="4659" y="4275"/>
  <node id="N107" x="4279" y="4173"/>
  <node id="N108" x="3962" y="2187"/>
  <node id="N109" x="4188" y="2560"/>
  <node id="N110" x="8925" y="4826"/>
  <node id="N111" x="8986" y="4770"/>
  <node id="N112" x="9017" y="4766"/>
  <node id="N113" x="9033" y="4866"/>
  <node id="N114" x="8774" y="4415"/>
  <node id="N115" x="8771" y="4469"/>
  <node id="N116" x="773" y="2064"/>
  <node id="N117" x="723" y="2019"/>
  <node id="N118" x="748" y="2078"/>
  <node id="N119" x="706" y="2035"/>
  <node id="N120" x="797" y="2053"/>
  <node id="N121" x="804" y="2070"/>
  <node id="N122" x="4294" y="2639"/>
  <node id="N123" x="4261" y="2686"/>
  <node id="N124" x="4247" y="2658"/>
  <node id="N125" x="4173" y="2698"/>
  <node id="N126" x="4271" y="2710"/>
  <node id="N127" x="2160" y="3061"/>
  <node id="N128" x="2120" y="3064"/>
  <node id="N129" x="2121" y="3074"/>
  <node id="N130" x="2161" y="3072"/>
  <node id="N131" x="11234" y="11394"/>
  <node id="N132" x="11248" y="11642"/>
  <node id="N133" x="11055" y="10820"/>
  <node id="N134" x="11047" y="10949"/>
  <node id="N135" x="10995" y="10945"/>
  <node id="N136" x="11068" y="10962"/>
  <node id="N137" x="9766" y="11648"/>
  <node id="N138" x="9703" y="11598"/>
  <node id="N139" x="8583" y="11399"/>
  <node id="N140" x="8240" y="11166"/>
  <node id="N141" x="8522" y="10970"/>
  <node id="N142" x="8580" y="11451"/>
  <node id="N143" x="8480" y="11427"/>
  <node id="N144" x="8914" y="11442"/>
  <node id="N145" x="9003" y="11431"/>
  <node id="N146" x="10798" y="10993"/>
  <node id="N147" x="10792" y="11299"/>
  <node id="N148" x="10800" y="10814"/>
  <node id="N149" x="10805" y="10587"/>
  <node id="N150" x="10807" y="10355"/>
  <node id="N151" x="10809" y="10230"/>
  <node id="N152" x="11019" y="11075"/>
  <node id="N153" x="10495" y="10583"/>
  <node id="N154" x="10493" y="10780"/>
  <node id="N155" x="10497" y="10331"/>
  <node id="N156" x="10498" y="10310"/>
  <node id="N157" x="10120" y="429"/>
  <node id="N158" x="10079" y="203"/>
  <node id="N159" x="5811" y="3964"/>
  <node id="N160" x="6729" y="5090"/>
  <node id="N161" x="6516" y="5102"/>
  <node id="N162" x="6773" y="5080"/>
  <node id="N163" x="1942" y="2483"/>
  <node id="N164" x="2005" y="2662"/>
  <node id="N165" x="1607" y="2746"/>
  <node id="N166" x="1544" y="2579"/>
  <node id="N167" x="7844" y="858"/>
  <node id="N168" x="7852" y="892"/>
  <node id="N169" x="7874" y="850"/>
  <node id="N170" x="8238" y="4094"/>
  <node id="N171" x="8200" y="4137"/>
  <node id="N172" x="10606" y="8890"/>
  <node id="N173" x="10686" y="8981"/>
  <node id="N174" x="7580" y="5768"/>
  <node id="N175" x="7554" y="5568"/>
  <node id="N176" x="11759" y="987"/>
  <node id="N177" x="11880" y="1191"/>
  <node id="N178" x="11729" y="944"/>
  <node id="N179" x="11652" y="1020"/>
  <node id="N180" x="11472" y="645"/>
  <node id="N181" x="11496" y="639"/>
  <node id="N182" x="11360" y="699"/>
  <node id="N183" x="3456" y="11030"/>
  <node id="N184" x="3234" y="11184"/>
  <node id="N185" x="2520" y="9515"/>
  <node id="N186" x="2318" y="9532"/>
  <node id="N187" x="3441" y="11569"/>
  <node id="N188" x="3473" y="11541"/>
  <node id="N189" x="5944" y="7283"/>
  <node id="N190" x="5921" y="7412"/>
  <node id="N191" x="7464" y="7053"/>
  <node id="N192" x="7368" y="7504"/>
  <node id="N193" x="6884" y="9183"/>
  <node id="N194" x="6885" y="9440"/>
  <node id="N195" x="6890" y="9001"/>
  <node id="N196" x="6893" y="8788"/>
  <node id="N197" x="10468" y="5747"/>
  <node id="N198" x="10388" y="4963"/>
  <node id="N199" x="10374" y="4867"/>
  <node id="N200" x="8496" y="4953"/>
  <node id="N201" x="8543" y="4812"/>
  <node id="N202" x="8936" y="4887"/>
  <node id="N203" x="8821" y="4905"/>
  <node id="N204" x="9077" y="4850"/>
  <node id="N205" x="8623" y="4949"/>
  <node id="N206" x="8581" y="4809"/>
  <node id="N207" x="9710" y="276"/>
  <node id="N208" x="8886" y="4475"/>
  <node id="N209" x="8815" y="4471"/>
  <node id="N210" x="8970" y="4475"/>
  <node id="N211" x="8352" y="4490"/>
  <node id="N212" x="8314" y="4536"/>
  <node id="N213" x="8279" y="6697"/>
  <node id="N214" x="8086" y="6909"/>
  <node id="N215" x="7753" y="2815"/>
  <node id="N216" x="7787" y="2952"/>
  <node id="N217" x="8394" y="2811"/>
  <node id="N218" x="6526" y="4300"/>
  <node id="N219" x="6772" y="4175"/>
  <node id="N220" x="7993" y="4354"/>
  <node id="N221" x="8061" y="4606"/>
  <node id="N222" x="7589" y="5023"/>
  <node id="N223" x="7799" y="4984"/>
  <node id="N224" x="7080" y="4209"/>
  <node id="N225" x="7926" y="841"/>
  <node id="N226" x="7880" y="869"/>
  <node id="N227" x="9911" y="8526"/>
  <node id="N228" x="9910" y="8531"/>
  <node id="N229" x="9922" y="8487"/>
  <node id="N230" x="9812" y="8399"/>
  <node id="N231" x="10003" y="8662"/>
  <node id="N232" x="10147" y="8546"/>
  <node id="N233" x="10302" y="8544"/>
  <node id="N234" x="10289" y="8554"/>
  <node id="N235" x="10313" y="8557"/>
  <node id="N236" x="10395" y="8562"/>
  <node id="N237" x="10477" y="8597"/>
  <node id="N238" x="10316" y="8492"/>
  <node id="N239" x="10354" y="8352"/>
  <node id="N240" x="2316" y="257"/>
  <node id="N241" x="2248" y="149"/>
  <node id="N242" x="5665" y="1883"/>
  <node id="N243" x="5848" y="1864"/>
  <node id="N244" x="4899" y="7964"/>
  <node id="N245" x="4855" y="8351"/>
  <node id="N246" x="5014" y="8368"/>
  <node id="N247" x="9834" y="4331"/>
  <node id="N248" x="9837" y="4370"/>
  <node id="N249" x="9745" y="4277"/>
  <node id="N250" x="9746" y="4297"/>
  <node id="N251" x="9714" y="4307"/>
  <node id="N252" x="9780" y="4300"/>
  <node id="N253" x="9871" y="4367"/>
  <node id="N254" x="9781" y="4333"/>
  <node id="N255" x="9712" y="4280"/>
  <node id="N256" x="9681" y="4282"/>
  <node id="N257" x="5651" y="7041"/>
  <node id="N258" x="5687" y="7010"/>
  <node id="N259" x="5540" y="7153"/>
  <node id="N260" x="5470" y="7221"/>
  <node id="N261" x="5501" y="6540"/>
  <node id="N262" x="5576" y="6469"/>
  <node id="N263" x="5367" y="6530"/>
  <node id="N264" x="9290" y="4802"/>
  <node id="N265" x="9259" y="4805"/>
  <node id="N266" x="9354" y="4733"/>
  <node id="N267" x="9251" y="4813"/>
  <node id="N268" x="9250" y="4856"/>
  <node id="N269" x="11780" y="5210"/>
  <node id="N270" x="11750" y="5490"/>
  <node id="N271" x="9727" y="1839"/>
  <node id="N272" x="9951" y="1800"/>
  <node id="N273" x="11866" y="5631"/>
  <node id="N274" x="11795" y="5618"/>
  <node id="N275" x="11817" y="5683"/>
  <node id="N276" x="11435" y="5794"/>
  <node id="N277" x="11503" y="5869"/>
  <node id="N278" x="10780" y="7147"/>
  <node id="N279" x="10956" y="6919"/>
  <node id="N280" x="10766" y="7145"/>
  <node id="N281" x="6575" y="2941"/>
  <node id="N282" x="6646" y="3077"/>
  <node id="N283" x="6264" y="3317"/>
  <node id="N284" x="6281" y="3351"/>
  <node id="N285" x="6117" y="3395"/>
  <node id="N286" x="6080" y="3325"/>
  <node id="N287" x="8350" y="7506"/>
  <node id="N288" x="8319" y="7487"/>
  <node id="N289" x="4888" y="6528"/>
  <node id="N290" x="4888" y="6496"/>
  <node id="N291" x="4899" y="6703"/>
  <node id="N292" x="4907" y="6718"/>
  <node id="N293" x="4922" y="6721"/>
  <node id="N294" x="4936" y="6709"/>
  <node id="N295" x="4992" y="6617"/>
  <node id="N296" x="4795" y="6652"/>
  <node id="N297" x="4895" y="6787"/>
  <node id="N298" x="4911" y="6790"/>
  <node id="N299" x="6655" y="9794"/>
  <node id="N300" x="6646" y="9582"/>
  <node id="N301" x="7154" y="3184"/>
  <node id="N302" x="7154" y="3066"/>
  <node id="N303" x="7154" y="3277"/>
  <node id="N304" x="7149" y="3642"/>
  <node id="N305" x="7148" y="3034"/>
  <node id="N306" x="7131" y="2975"/>
  <node id="N307" x="4372" y="2865"/>
  <node id="N308" x="4375" y="2881"/>
  <node id="N309" x="4563" y="2755"/>
  <node id="N310" x="4577" y="2803"/>
  <node id="N311" x="4543" y="2686"/>
  <node id="N312" x="4536" y="2760"/>
  <node id="N313" x="4626" y="2737"/>
  <node id="N314" x="7055" y="2680"/>
  <node id="N315" x="6969" y="2436"/>
  <node id="N316" x="8580" y="2767"/>
  <node id="N317" x="8653" y="2748"/>
  <node id="N318" x="8509" y="2787"/>
  <node id="N319" x="8140" y="2881"/>
  <node id="N320" x="6992" y="3679"/>
  <node id="N321" x="7613" y="1494"/>
  <node id="N322" x="7631" y="1625"/>
  <node id="N323" x="7339" y="1168"/>
  <node id="N324" x="7348" y="1165"/>
  <node id="N325" x="7452" y="2580"/>
  <node id="N326" x="7481" y="2722"/>
  <node id="N327" x="7428" y="2464"/>
  <node id="N328" x="7396" y="2325"/>
  <node id="N329" x="2526" y="378"/>
  <node id="N330" x="2444" y="252"/>
  <node id="N331" x="9427" y="11366"/>
  <node id="N332" x="9501" y="11339"/>
  <node id="N333" x="6535" y="6272"/>
  <node id="N334" x="6528" y="6207"/>
  <node id="N335" x="7116" y="5569"/>
  <node id="N336" x="7018" y="5558"/>
  <node id="N337" x="7476" y="5573"/>
  <node id="N338" x="7414" y="5576"/>
  <node id="N339" x="7692" y="5560"/>
  <node id="N340" x="7040" y="5250"/>
  <node id="N341" x="7048" y="5156"/>
  <node id="N342" x="7922" y="728"/>
  <node id="N343" x="7777" y="772"/>
  <node id="N344" x="7776" y="786"/>
  <node id="N345" x="8028" y="738"/>
  <node id="N346" x="9296" y="5387"/>
  <node id="N347" x="9076" y="5429"/>
  <node id="N348" x="9053" y="5461"/>
  <node id="N349" x="9073" y="5416"/>
  <node id="N350" x="9059" y="5339"/>
  <node id="N351" x="9294" y="5377"/>
  <node id="N352" x="4342" y="6350"/>
  <node id="N353" x="4325" y="6378"/>
  <node id="N354" x="4364" y="6302"/>
  <node id="N355" x="4313" y="6333"/>
  <node id="N356" x="4305" y="6290"/>
  <node id="N357" x="4324" y="6260"/>
  <node id="N358" x="4400" y="6260"/>
  <node id="N359" x="4406" y="6212"/>
  <node id="N360" x="4409" y="6176"/>
  <node id="N361" x="4413" y="6144"/>
  <node id="N362" x="4428" y="6214"/>
  <node id="N363" x="4203" y="6278"/>
  <node id="N364" x="4186" y="6308"/>
  <node id="N365" x="4272" y="6319"/>
  <node id="N366" x="4241" y="6209"/>
  <node id="N367" x="4280" y="6141"/>
  <node id="N368" x="4247" y="6061"/>
  <node id="N369" x="4231" y="6041"/>
  <node id="N370" x="4240" y="5997"/>
  <node id="N371" x="4273" y="5940"/>
  <node id="N372" x="4180" y="6178"/>
  <node id="N373" x="4146" y="6158"/>
  <node id="N374" x="2895" y="5921"/>
  <node id="N375" x="2829" y="5686"/>
  <node id="N376" x="6756" y="209"/>
  <node id="N377" x="6821" y="110"/>
  <node id="N378" x="2165" y="7791"/>
  <node id="N379" x="2125" y="7768"/>
  <node id="N380" x="2174" y="7789"/>
  <node id="N381" x="2193" y="7784"/>
  <node id="N382" x="2243" y="7768"/>
  <node id="N383" x="2275" y="7757"/>
  <node id="N384" x="2324" y="7742"/>
  <node id="N385" x="2374" y="7728"/>
  <node id="N386" x="8903" y="1557"/>
  <node id="N387" x="8867" y="1778"/>
  <node id="N388" x="10168" y="8505"/>
  <node id="N389" x="11546" y="4653"/>
  <node id="N390" x="11584" y="4768"/>
  <node id="N391" x="10119" y="1703"/>
  <node id="N392" x="10167" y="2048"/>
  <node id="N393" x="10350" y="1727"/>
  <node id="N394" x="10589" y="1691"/>
  <node id="N395" x="10080" y="1450"/>
  <node id="N396" x="10345" y="1616"/>
  <node id="N397" x="10258" y="1625"/>
  <node id="N398" x="10277" y="10829"/>
  <node id="N399" x="10307" y="10823"/>
  <node id="N400" x="10011" y="10822"/>
  <node id="N401" x="7442" y="198"/>
  <node id="N402" x="7445" y="378"/>
  <node id="N403" x="7254" y="194"/>
  <node id="N404" x="7558" y="200"/>
  <node id="N405" x="7972" y="208"/>
  <node id="N406" x="10147" y="10390"/>
  <node id="N407" x="10077" y="10391"/>
  <node id="N408" x="10250" y="10387"/>
  <node id="N409" x="10051" y="10219"/>
  <node id="N410" x="9964" y="10194"/>
  <node id="N411" x="10138" y="10243"/>
  <node id="N412" x="10130" y="10294"/>
  <node id="N413" x="10039" y="10257"/>
  <node id="N414" x="7168" y="10990"/>
  <node id="N415" x="7148" y="11220"/>
  <node id="N416" x="7396" y="11013"/>
  <node id="N417" x="7377" y="11203"/>
  <node id="N418" x="7678" y="11023"/>
  <node id="N419" x="7668" y="11196"/>
  <node id="N420" x="7692" y="10829"/>
  <node id="N421" x="7449" y="11202"/>
  <node id="N422" x="4100" y="6095"/>
  <node id="N423" x="4045" y="6238"/>
  <node id="N424" x="4167" y="6072"/>
  <node id="N425" x="4193" y="6107"/>
  <node id="N426" x="4178" y="6051"/>
  <node id="N427" x="4213" y="6075"/>
  <node id="N428" x="4119" y="6044"/>
  <node id="N429" x="4169" y="6138"/>
  <node id="N430" x="7435" y="5840"/>
  <node id="N431" x="7409" y="5842"/>
  <node id="N432" x="7495" y="5816"/>
  <node id="N433" x="7501" y="5775"/>
  <node id="N434" x="7494" y="5843"/>
  <node id="N435" x="1834" y="494"/>
  <node id="N436" x="1899" y="534"/>
  <node id="N437" x="1825" y="402"/>
  <node id="N438" x="1995" y="388"/>
  <node id="N439" x="1703" y="328"/>
  <node id="N440" x="1687" y="75"/>
  <node id="N441" x="1851" y="618"/>
  <node id="N442" x="1916" y="681"/>
  <node id="N443" x="1791" y="663"/>
  <node id="N444" x="1672" y="446"/>
  <node id="N445" x="1651" y="486"/>
  <node id="N446" x="1760" y="652"/>
  <node id="N447" x="1533" y="499"/>
  <node id="N448" x="1694" y="758"/>
  <node id="N449" x="1546" y="494"/>
  <node id="N450" x="1838" y="1017"/>
  <node id="N451" x="2051" y="350"/>
  <node id="N452" x="4579" y="8282"/>
  <node id="N453" x="4567" y="8354"/>
  <node id="N454" x="4657" y="8297"/>
  <node id="N455" x="6559" y="209"/>
  <node id="N456" x="6576" y="311"/>
  <node id="N457" x="8919" y="11659"/>
  <node id="N458" x="10059" y="4650"/>
  <node id="N459" x="10290" y="4631"/>
  <node id="N460" x="10249" y="4574"/>
  <node id="N461" x="10277" y="4572"/>
  <node id="N462" x="2271" y="6879"/>
  <node id="N463" x="2429" y="6877"/>
  <node id="N464" x="2069" y="6879"/>
  <node id="N465" x="2261" y="6906"/>
  <node id="N466" x="2089" y="7020"/>
  <node id="N467" x="2185" y="7084"/>
  <node id="N468" x="2190" y="7145"/>
  <node id="N469" x="2053" y="7153"/>
  <node id="N470" x="2186" y="7023"/>
  <node id="N471" x="2464" y="7290"/>
  <node id="N472" x="6480" y="8756"/>
  <node id="N473" x="6486" y="9012"/>
  <node id="N474" x="10887" y="6462"/>
  <node id="N475" x="10643" y="6628"/>
  <node id="N476" x="6752" y="273"/>
  <node id="N477" x="8807" y="5150"/>
  <node id="N478" x="8529" y="5191"/>
  <node id="N479" x="8797" y="5101"/>
  <node id="N480" x="8533" y="5152"/>
  <node id="N481" x="8297" y="3682"/>
  <node id="N482" x="8213" y="3709"/>
  <node id="N483" x="8235" y="3727"/>
  <node id="N484" x="8303" y="3709"/>
  <node id="N485" x="8245" y="3752"/>
  <node id="N486" x="8311" y="3738"/>
  <node id="N487" x="8186" y="3767"/>
  <node id="N488" x="8185" y="3791"/>
  <node id="N489" x="8266" y="3847"/>
  <node id="N490" x="8178" y="3882"/>
  <node id="N491" x="8196" y="3853"/>
  <node id="N492" x="8164" y="3865"/>
  <node id="N493" x="8195" y="3822"/>
  <node id="N494" x="8143" y="3841"/>
  <node id="N495" x="8124" y="3820"/>
  <node id="N496" x="8095" y="3889"/>
  <node id="N497" x="8089" y="3867"/>
  <node id="N498" x="8025" y="3890"/>
  <node id="N499" x="8084" y="3845"/>
  <node id="N500" x="8073" y="3823"/>
  <node id="N501" x="8060" y="3804"/>
  <node id="N502" x="8108" y="3803"/>
  <node id="N503" x="8019" y="3819"/>
  <node id="N504" x="8092" y="3785"/>
  <node id="N505" x="8439" y="3766"/>
  <node id="N506" x="8500" y="3781"/>
  <node id="N507" x="8431" y="3739"/>
  <node id="N508" x="8415" y="3776"/>
  <node id="N509" x="8474" y="3755"/>
  <node id="N510" x="8407" y="3748"/>
  <node id="N511" x="8450" y="3731"/>
  <node id="N512" x="8430" y="3687"/>
  <node id="N513" x="8423" y="3662"/>
  <node id="N514" x="8416" y="3635"/>
  <node id="N515" x="8392" y="3697"/>
  <node id="N516" x="8385" y="3672"/>
  <node id="N517" x="8437" y="3661"/>
  <node id="N518" x="8400" y="3638"/>
  <node id="N519" x="8376" y="3643"/>
  <node id="N520" x="8448" y="3629"/>
  <node id="N521" x="8395" y="3612"/>
  <node id="N522" x="8389" y="3584"/>
  <node id="N523" x="8384" y="3559"/>
  <node id="N524" x="8432" y="3605"/>
  <node id="N525" x="8422" y="3577"/>
  <node id="N526" x="8554" y="3782"/>
  <node id="N527" x="8558" y="3803"/>
  <node id="N528" x="8551" y="3768"/>
  <node id="N529" x="8549" y="3758"/>
  <node id="N530" x="8547" y="3748"/>
  <node id="N531" x="8545" y="3737"/>
  <node id="N532" x="8542" y="3725"/>
  <node id="N533" x="8537" y="3709"/>
  <node id="N534" x="8507" y="3792"/>
  <node id="N535" x="8503" y="3767"/>
  <node id="N536" x="8605" y="3732"/>
  <node id="N537" x="8499" y="3749"/>
  <node id="N538" x="8598" y="3707"/>
  <node id="N539" x="8503" y="3719"/>
  <node id="N540" x="4751" y="4127"/>
  <node id="N541" x="4829" y="4025"/>
  <node id="N542" x="4707" y="4114"/>
  <node id="N543" x="4502" y="4055"/>
  <node id="N544" x="4467" y="3906"/>
  <node id="N545" x="4609" y="8360"/>
  <node id="N546" x="8392" y="8233"/>
  <node id="N547" x="8239" y="8257"/>
  <node id="N548" x="8404" y="8218"/>
  <node id="N549" x="8410" y="8194"/>
  <node id="N550" x="8505" y="8155"/>
  <node id="N551" x="8469" y="8242"/>
  <node id="N552" x="8818" y="8204"/>
  <node id="N553" x="8725" y="8239"/>
  <node id="N554" x="8483" y="8244"/>
  <node id="N555" x="8425" y="8237"/>
  <node id="N556" x="10162" y="589"/>
  <node id="N557" x="10151" y="548"/>
  <node id="N558" x="10223" y="821"/>
  <node id="N559" x="10588" y="1175"/>
  <node id="N560" x="11048" y="1184"/>
  <node id="N561" x="11073" y="1180"/>
  <node id="N562" x="11382" y="1082"/>
  <node id="N563" x="10582" y="1333"/>
  <node id="N564" x="10567" y="751"/>
  <node id="N565" x="10520" y="6735"/>
  <node id="N566" x="10671" y="7379"/>
  <node id="N567" x="10428" y="6734"/>
  <node id="N568" x="9639" y="6315"/>
  <node id="N569" x="9628" y="6181"/>
  <node id="N570" x="10012" y="8024"/>
  <node id="N571" x="10070" y="7798"/>
  <node id="N572" x="11472" y="8894"/>
  <node id="N573" x="11492" y="8863"/>
  <node id="N574" x="9687" y="3102"/>
  <node id="N575" x="9833" y="3100"/>
  <node id="N576" x="9322" y="4120"/>
  <node id="N577" x="9248" y="4119"/>
  <node id="N578" x="9118" y="3376"/>
  <node id="N579" x="9118" y="3352"/>
  <node id="N580" x="4398" y="608"/>
  <node id="N581" x="4533" y="860"/>
  <node id="N582" x="4976" y="7508"/>
  <node id="N583" x="4981" y="7485"/>
  <node id="N584" x="9516" y="3205"/>
  <node id="N585" x="9572" y="3208"/>
  <node id="N586" x="9308" y="3348"/>
  <node id="N587" x="9270" y="3347"/>
  <node id="N588" x="3108" y="2273"/>
  <node id="N589" x="3127" y="2215"/>
  <node id="N590" x="3126" y="2337"/>
  <node id="N591" x="3137" y="2351"/>
  <node id="N592" x="3173" y="2366"/>
  <node id="N593" x="3121" y="2265"/>
  <node id="N594" x="3115" y="2392"/>
  <node id="N595" x="3105" y="2389"/>
  <node id="N596" x="3095" y="2386"/>
  <node id="N597" x="3153" y="2377"/>
  <node id="N598" x="3079" y="2403"/>
  <node id="N599" x="3044" y="2421"/>
  <node id="N600" x="3094" y="2437"/>
  <node id="N601" x="2909" y="2240"/>
  <node id="N602" x="2893" y="2195"/>
  <node id="N603" x="2902" y="2315"/>
  <node id="N604" x="2451" y="3292"/>
  <node id="N605" x="2426" y="3338"/>
  <node id="N606" x="6671" y="2300"/>
  <node id="N607" x="6653" y="2339"/>
  <node id="N608" x="6673" y="2294"/>
  <node id="N609" x="11198" y="1717"/>
  <node id="N610" x="11254" y="2006"/>
  <node id="N611" x="9946" y="1485"/>
  <node id="N612" x="9927" y="1373"/>
  <node id="N613" x="10162" y="1034"/>
  <node id="N614" x="9869" y="1091"/>
  <node id="N615" x="10130" y="843"/>
  <node id="N616" x="10079" y="600"/>
  <node id="N617" x="9843" y="889"/>
  <node id="N618" x="3944" y="11616"/>
  <node id="N619" x="3897" y="11594"/>
  <node id="N620" x="238" y="1006"/>
  <node id="N621" x="198" y="725"/>
  <node id="N622" x="234" y="1054"/>
  <node id="N623" x="238" y="1312"/>
  <node id="N624" x="239" y="1448"/>
  <node id="N625" x="6040" y="5625"/>
  <node id="N626" x="5929" y="5707"/>
  <node id="N627" x="10209" y="2753"/>
  <node id="N628" x="9930" y="2813"/>
  <node id="N629" x="11912" y="1200"/>
  <node id="N630" x="11713" y="1435"/>
  <node id="N631" x="11910" y="1187"/>
  <node id="N632" x="11684" y="1291"/>
  <node id="N633" x="11674" y="1242"/>
  <node id="N634" x="11250" y="1510"/>
  <node id="N635" x="11304" y="1498"/>
  <node id="N636" x="11297" y="1553"/>
  <node id="N637" x="9061" y="4712"/>
  <node id="N638" x="9022" y="4713"/>
  <node id="N639" x="8845" y="4713"/>
  <node id="N640" x="6874" y="6219"/>
  <node id="N641" x="6877" y="6225"/>
  <node id="N642" x="6886" y="6162"/>
  <node id="N643" x="6894" y="6139"/>
  <node id="N644" x="6913" y="6073"/>
  <node id="N645" x="6950" y="5889"/>
  <node id="N646" x="6976" y="5749"/>
  <node id="N647" x="10535" y="508"/>
  <node id="N648" x="10507" y="328"/>
  <node id="N649" x="10540" y="538"/>
  <node id="N650" x="7955" y="381"/>
  <node id="N651" x="7987" y="180"/>
  <node id="N652" x="9924" y="1629"/>
  <node id="N653" x="6787" y="393"/>
  <node id="N654" x="6808" y="443"/>
  <node id="N655" x="6809" y="433"/>
  <node id="N656" x="6807" y="459"/>
  <node id="N657" x="6815" y="482"/>
  <node id="N658" x="6997" y="237"/>
  <node id="N659" x="7097" y="1280"/>
  <node id="N660" x="7032" y="1277"/>
  <node id="N661" x="7211" y="1405"/>
  <node id="N662" x="7253" y="1607"/>
  <node id="N663" x="7327" y="1746"/>
  <node id="N664" x="6948" y="1093"/>
  <node id="N665" x="6922" y="977"/>
  <node id="N666" x="7659" y="6695"/>
  <node id="N667" x="7363" y="6435"/>
  <node id="N668" x="8183" y="4776"/>
  <node id="N669" x="8154" y="4585"/>
  <node id="N670" x="8214" y="4962"/>
  <node id="N671" x="7733" y="4705"/>
  <node id="N672" x="7554" y="4741"/>
  <node id="N673" x="8147" y="9381"/>
  <node id="N674" x="8092" y="9347"/>
  <node id="N675" x="2910" y="9896"/>
  <node id="N676" x="2917" y="9896"/>
  <node id="N677" x="2593" y="9928"/>
  <node id="N678" x="2447" y="9931"/>
  <node id="N679" x="3145" y="10089"/>
  <node id="N680" x="3137" y="9865"/>
  <node id="N681" x="11852" y="3630"/>
  <node id="N682" x="11630" y="3576"/>
  <node id="N683" x="8158" y="2430"/>
  <node id="N684" x="7835" y="2396"/>
  <node id="N685" x="8380" y="2535"/>
  <node id="N686" x="8522" y="2641"/>
  <node id="N687" x="6919" y="963"/>
  <node id="N688" x="6869" y="735"/>
  <node id="N689" x="941" y="604"/>
  <node id="N690" x="978" y="678"/>
  <node id="N691" x="907" y="530"/>
  <node id="N692" x="11849" y="5225"/>
  <node id="N693" x="11826" y="5170"/>
  <node id="N694" x="11882" y="5365"/>
  <node id="N695" x="11827" y="5249"/>
  <node id="N696" x="11883" y="4590"/>
  <node id="N697" x="11804" y="5082"/>
  <node id="N698" x="11854" y="4152"/>
  <node id="N699" x="11647" y="4120"/>
  <node id="N700" x="7244" y="10221"/>
  <node id="N701" x="7169" y="10443"/>
  <node id="N702" x="7257" y="10156"/>
  <node id="N703" x="7258" y="10116"/>
  <node id="N704" x="7278" y="9979"/>
  <node id="N705" x="7533" y="10068"/>
  <node id="N706" x="7602" y="10305"/>
  <node id="N707" x="7470" y="9905"/>
  <node id="N708" x="7775" y="10897"/>
  <node id="N709" x="7883" y="11185"/>
  <node id="N710" x="8197" y="11547"/>
  <node id="N711" x="6054" y="2922"/>
  <node id="N712" x="5953" y="3015"/>
  <node id="N713" x="6149" y="2848"/>
  <node id="N714" x="6884" y="2466"/>
  <node id="N715" x="6310" y="2736"/>
  <node id="N716" x="6480" y="2636"/>
  <node id="N717" x="6556" y="2595"/>
  <node id="N718" x="6594" y="2579"/>
  <node id="N719" x="6670" y="2547"/>
  <node id="N720" x="6745" y="2517"/>
  <node id="N721" x="6813" y="2492"/>
  <node id="N722" x="6733" y="4433"/>
  <node id="N723" x="6875" y="4425"/>
  <node id="N724" x="6621" y="4440"/>
  <node id="N725" x="6596" y="4441"/>
  <node id="N726" x="6394" y="4454"/>
  <node id="N727" x="6703" y="4058"/>
  <node id="N728" x="6651" y="3968"/>
  <node id="N729" x="6590" y="3839"/>
  <node id="N730" x="6533" y="3686"/>
  <node id="N731" x="6473" y="3576"/>
  <node id="N732" x="6355" y="3393"/>
  <node id="N733" x="6143" y="5613"/>
  <node id="N734" x="5917" y="5527"/>
  <node id="N735" x="6229" y="5622"/>
  <node id="N736" x="4549" y="2969"/>
  <node id="N737" x="4510" y="2822"/>
  <node id="N738" x="4383" y="2952"/>
  <node id="N739" x="5756" y="3097"/>
  <node id="N740" x="5781" y="3094"/>
  <node id="N741" x="9344" y="1091"/>
  <node id="N742" x="9374" y="1094"/>
  <node id="N743" x="9327" y="1089"/>
  <node id="N744" x="8622" y="1035"/>
  <node id="N745" x="8792" y="1047"/>
  <node id="N746" x="9291" y="1086"/>
  <node id="N747" x="9231" y="1080"/>
  <node id="N748" x="9187" y="1077"/>
  <node id="N749" x="9156" y="1074"/>
  <node id="N750" x="9101" y="1069"/>
  <node id="N751" x="9068" y="1066"/>
  <node id="N752" x="8875" y="1054"/>
  <node id="N753" x="2108" y="8478"/>
  <node id="N754" x="2217" y="8972"/>
  <node id="N755" x="2082" y="8372"/>
  <node id="N756" x="2200" y="8127"/>
  <node id="N757" x="2474" y="8019"/>
  <node id="N758" x="2547" y="7999"/>
  <node id="N759" x="2708" y="7835"/>
  <node id="N760" x="2955" y="7670"/>
  <node id="N761" x="3191" y="7540"/>
  <node id="N762" x="3546" y="7205"/>
  <node id="N763" x="2263" y="8462"/>
  <node id="N764" x="2603" y="8420"/>
  <node id="N765" x="3839" y="8124"/>
  <node id="N766" x="3900" y="8115"/>
  <node id="N767" x="3587" y="8358"/>
  <node id="N768" x="3994" y="6240"/>
  <node id="N769" x="3657" y="7278"/>
  <node id="N770" x="4634" y="4982"/>
  <node id="N771" x="3107" y="6582"/>
  <node id="N772" x="2945" y="6542"/>
  <node id="N773" x="3365" y="6638"/>
  <node id="N774" x="3638" y="6701"/>
  <node id="N775" x="3557" y="6866"/>
  <node id="N776" x="3346" y="6814"/>
  <node id="N777" x="3920" y="5331"/>
  <node id="N778" x="3782" y="5479"/>
  <node id="N779" x="4177" y="5091"/>
  <node id="N780" x="4437" y="4874"/>
  <node id="N781" x="3251" y="6857"/>
  <node id="N782" x="3069" y="6816"/>